<?xml version="1.0" encoding="UTF-8"?>

<!-- generated on Mon Jun  3 17:00:59 2019 by Eclipse SUMO polyconvert Version 1.1.0
<configuration xmlns:xsi="http://www.w3.org/2001/XMLSchema-instance" xsi:noNamespaceSchemaLocation="http://sumo.dlr.de/xsd/polyconvertConfiguration.xsd">

    <input>
        <net-file value="carleton.net.xml"/>
        <osm-files value="carleton.osm"/>
        <osm.keep-full-type value="true"/>
    </input>

    <output>
        <output-file value="carleton.poly.xml"/>
    </output>

    <processing>
        <poi-layer-offset value="5"/>
    </processing>

</configuration>
-->

<additional xmlns:xsi="http://www.w3.org/2001/XMLSchema-instance" xsi:noNamespaceSchemaLocation="http://sumo.dlr.de/xsd/additional_file.xsd">
    <location netOffset="-444032.78,-5024123.02" convBoundary="-1385.85,-1904.16,4179.92,8125.38" origBoundary="-75.732635,45.351329,-75.661886,45.441642" projParameter="+proj=utm +zone=18 +ellps=WGS84 +datum=WGS84 +units=m +no_defs"/>

    <poly id="102795027" type="highway.service" color="26,26,26" fill="0" layer="10.00" shape="351.059389,1856.440927 383.886488,1875.016610 482.050450,1927.736561"/>
    <poly id="10583513" type="amenity.university" color="237,199,199" fill="1" layer="-1.00" shape="2008.389222,1676.031149 1517.054422,2606.657633 1485.892594,2644.924360 1449.170533,2672.029055 1398.958789,2692.551290 1349.262019,2724.579763 1188.204499,2563.967498 1145.344263,2502.733582 1137.064573,2323.151665 1184.861968,2024.712609 1203.826624,1887.246454 1202.982611,1790.138535 1186.323859,1712.900015 1178.475507,1676.493098 1123.753631,1566.454864 1072.367143,1453.032721 1055.157503,1406.297148 1040.847148,1305.951326 1042.367160,1094.942228 1124.729091,1175.619066 1215.214939,1264.248008 1377.911514,1426.935722 1438.359253,1455.310262 1442.557258,1457.273792 1444.813514,1458.331969 1469.003450,1469.688542 1701.845521,1584.892742 2008.389222,1676.031149"/>
    <poly id="10613457" type="leisure.pitch" color="207,245,201" fill="1" layer="-2.00" shape="2032.193099,1982.749090 1976.536723,2074.974585 1988.090166,2090.285568 2010.393721,2104.826769 2037.325338,2111.295688 2057.494387,2112.456310 2075.575139,2105.613229 2093.623575,2094.070822 2113.592394,2071.801733 2120.194532,2058.346293 2088.386216,2031.831314 2074.790307,2013.860041 2054.477688,1995.957377 2032.193099,1982.749090"/>
    <poly id="10613457#1" type="sport.baseball" color="79,230,125" fill="1" layer="-2.00" shape="2032.193099,1982.749090 1976.536723,2074.974585 1988.090166,2090.285568 2010.393721,2104.826769 2037.325338,2111.295688 2057.494387,2112.456310 2075.575139,2105.613229 2093.623575,2094.070822 2113.592394,2071.801733 2120.194532,2058.346293 2088.386216,2031.831314 2074.790307,2013.860041 2054.477688,1995.957377 2032.193099,1982.749090"/>
    <poly id="10613499" type="leisure.pitch" color="207,245,201" fill="1" layer="-2.00" shape="1956.544869,1920.979491 1972.973876,1930.549075 1994.752782,1944.094797 2016.725872,1963.871804 2011.752341,1970.936098 1996.569654,1988.942595 1978.179062,1998.943877 1952.979602,1999.159861 1936.575731,1996.156298 1924.752935,1988.724917 1921.381988,1987.287273 1956.544869,1920.979491"/>
    <poly id="10613499#1" type="sport.baseball" color="79,230,125" fill="1" layer="-2.00" shape="1956.544869,1920.979491 1972.973876,1930.549075 1994.752782,1944.094797 2016.725872,1963.871804 2011.752341,1970.936098 1996.569654,1988.942595 1978.179062,1998.943877 1952.979602,1999.159861 1936.575731,1996.156298 1924.752935,1988.724917 1921.381988,1987.287273 1956.544869,1920.979491"/>
    <poly id="10613533" type="leisure.pitch" color="207,245,201" fill="1" layer="-2.00" shape="1959.129309,2081.823289 1990.882589,2023.288790 1980.725082,2014.665347 1962.569603,2012.809977 1942.400213,2011.649655 1924.984830,2018.498519 1910.319807,2032.012232 1900.380614,2048.840734 1959.129309,2081.823289"/>
    <poly id="10613533#1" type="sport.baseball" color="79,230,125" fill="1" layer="-2.00" shape="1959.129309,2081.823289 1990.882589,2023.288790 1980.725082,2014.665347 1962.569603,2012.809977 1942.400213,2011.649655 1924.984830,2018.498519 1910.319807,2032.012232 1900.380614,2048.840734 1959.129309,2081.823289"/>
    <poly id="10613895" type="highway.path" color="26,26,26" fill="0" layer="10.00" shape="2077.095118,1962.966306 2079.873749,1969.297626 2085.206307,1978.573554 2097.632416,1985.166804 2113.542748,1986.308474 2126.455183,1985.687046 2145.025535,1984.783993 2168.262498,2004.117421 2180.138555,2017.826113 2190.811382,2038.244600 2192.164663,2049.121132 2189.108578,2060.713027 2189.805974,2091.971427 2189.242158,2108.463909 2173.176274,2133.077033 2162.441402,2148.467571 2149.418307,2170.921600 2128.024878,2223.422753"/>
    <poly id="10613905" type="highway.footway" color="26,26,26" fill="0" layer="10.00" shape="2145.025535,1984.783993 2170.854400,1952.832423 2174.144210,1944.771597 2163.958279,1932.803908"/>
    <poly id="10614029" type="amenity.parking" color="184,184,179" fill="1" layer="-1.00" shape="1837.353168,2154.863102 1884.256629,2176.014275 1882.708353,2178.960685 1925.120680,2203.183826 1953.260403,2154.279404 1920.130012,2135.209390 1893.451329,2121.728203 1854.651137,2102.496097 1835.151845,2142.849560 1840.762630,2148.034306 1837.353168,2154.863102"/>
    <poly id="10614187" type="building.school" color="255,230,230" fill="1" layer="-1.00" shape="1887.088580,2230.497097 1888.261836,2230.375923 1888.960641,2229.703307 1893.047535,2222.446532 1893.275702,2221.666853 1893.191700,2221.000956 1892.716295,2220.338418 1892.244703,2220.120260 1893.092442,2218.557542 1895.846572,2220.200448 1897.619379,2216.963246 1894.943529,2215.319667 1895.713942,2213.868716 1896.343049,2214.196625 1896.891015,2214.191922 1897.437074,2213.965030 1897.902945,2213.516619 1902.221844,2205.924551 1902.371732,2205.145544 1902.052888,2204.481662 1901.657670,2204.040642 1879.707598,2191.452203 1879.002114,2191.347157 1878.220256,2191.464972 1877.676104,2191.914056 1877.366795,2192.361123 1876.044709,2191.561422 1875.005961,2190.937054 1875.234128,2190.157374 1875.229358,2189.601900 1874.989746,2189.048442 1874.594525,2188.607423 1869.088133,2185.543819 1868.227994,2185.662308 1867.681933,2185.889203 1867.372624,2186.336271 1853.800293,2210.339979 1853.964489,2211.227393 1854.518180,2211.889255 1887.088580,2230.497097"/>
    <poly id="10614252" type="amenity.parking" color="184,184,179" fill="1" layer="-1.00" shape="1880.934549,2307.011021 1932.806152,2339.830146 1911.117608,2381.379863 1856.014536,2348.733108 1880.934549,2307.011021"/>
    <poly id="10614357" type="leisure.pitch" color="207,245,201" fill="1" layer="-2.00" shape="2199.593160,2210.445798 2240.601063,2233.560886 2223.770194,2263.924432 2274.328183,2292.513417 2310.057438,2229.980281 2293.026681,2220.381630 2310.496501,2189.612866 2235.434283,2147.289111 2199.593160,2210.445798"/>
    <poly id="10614357#1" type="sport.tennis" color="79,230,125" fill="1" layer="-2.00" shape="2199.593160,2210.445798 2240.601063,2233.560886 2223.770194,2263.924432 2274.328183,2292.513417 2310.057438,2229.980281 2293.026681,2220.381630 2310.496501,2189.612866 2235.434283,2147.289111 2199.593160,2210.445798"/>
    <poly id="10614402" type="leisure.pitch" color="207,245,201" fill="1" layer="-2.00" shape="2180.655357,2225.084159 2148.067083,2207.030481 2188.787229,2134.043679 2221.375755,2152.097567 2180.655357,2225.084159"/>
    <poly id="10614402#1" type="sport.beachvolleyball" color="79,230,125" fill="1" layer="-2.00" shape="2180.655357,2225.084159 2148.067083,2207.030481 2188.787229,2134.043679 2221.375755,2152.097567 2180.655357,2225.084159"/>
    <poly id="10614502" type="amenity.parking" color="184,184,179" fill="1" layer="-1.00" shape="2688.867455,1715.059568 2606.427346,1667.216405 2582.073178,1643.524502 2600.168864,1622.506134 2615.253538,1627.755765 2708.184395,1681.043281 2688.867455,1715.059568"/>
    <poly id="10616030" type="leisure.park" color="207,245,201" fill="1" layer="-2.00" shape="2605.133384,1896.232276 2595.695141,1892.956915 2586.926766,1888.353769 2269.411329,1611.761546 2268.698098,1607.079087 2270.666532,1601.029431 2292.660949,1580.076937 2311.342607,1564.518992 2326.045788,1554.339013 2389.285742,1545.290526 2491.035711,1595.811220 2557.551672,1594.569357 2571.695513,1597.804791 2623.600729,1616.785923 2665.427779,1636.519337 2701.929387,1661.664297 2733.057996,1687.521472 2635.915501,1881.239430 2630.618793,1889.983608 2623.939558,1895.406414 2615.887519,1896.807822 2605.133384,1896.232276"/>
    <poly id="10616092" type="leisure.pitch" color="207,245,201" fill="1" layer="-2.00" shape="2488.127729,1744.869098 2437.984719,1696.398559 2443.306147,1689.653859 2453.969703,1679.519601 2466.704330,1675.400655 2486.829222,1671.207896 2510.380912,1675.029967 2533.344371,1688.889688 2488.127729,1744.869098"/>
    <poly id="10616092#1" type="sport.baseball" color="79,230,125" fill="1" layer="-2.00" shape="2488.127729,1744.869098 2437.984719,1696.398559 2443.306147,1689.653859 2453.969703,1679.519601 2466.704330,1675.400655 2486.829222,1671.207896 2510.380912,1675.029967 2533.344371,1688.889688 2488.127729,1744.869098"/>
    <poly id="10616110" type="leisure.pitch" color="207,245,201" fill="1" layer="-2.00" shape="2542.167823,1680.559940 2492.030394,1632.755542 2499.377518,1626.671428 2513.428201,1619.852727 2527.507368,1616.389117 2540.926752,1613.597750 2556.386500,1614.133307 2573.911453,1620.006553 2587.413837,1627.935991 2542.167823,1680.559940"/>
    <poly id="10616110#1" type="sport.baseball" color="79,230,125" fill="1" layer="-2.00" shape="2542.167823,1680.559940 2492.030394,1632.755542 2499.377518,1626.671428 2513.428201,1619.852727 2527.507368,1616.389117 2540.926752,1613.597750 2556.386500,1614.133307 2573.911453,1620.006553 2587.413837,1627.935991 2542.167823,1680.559940"/>
    <poly id="10616128" type="leisure.pitch" color="207,245,201" fill="1" layer="-2.00" shape="2600.823045,1843.028354 2550.025467,1796.573446 2558.026487,1789.139510 2571.405785,1781.660006 2588.814673,1774.813009 2601.577511,1774.038286 2621.753147,1775.867290 2645.395081,1790.410505 2600.823045,1843.028354"/>
    <poly id="10616128#1" type="sport.baseball" color="79,230,125" fill="1" layer="-2.00" shape="2600.823045,1843.028354 2550.025467,1796.573446 2558.026487,1789.139510 2571.405785,1781.660006 2588.814673,1774.813009 2601.577511,1774.038286 2621.753147,1775.867290 2645.395081,1790.410505 2600.823045,1843.028354"/>
    <poly id="10616156" type="leisure.pitch" color="207,245,201" fill="1" layer="-2.00" shape="2655.393765,1782.182071 2624.955575,1758.330392 2603.263154,1736.415742 2602.555828,1732.399815 2605.203544,1727.022241 2618.558176,1717.532091 2633.966600,1712.035393 2654.102850,1709.187414 2669.568081,1710.400925 2683.066611,1716.986254 2698.599719,1726.231986 2655.393765,1782.182071"/>
    <poly id="10616156#1" type="sport.baseball" color="79,230,125" fill="1" layer="-2.00" shape="2655.393765,1782.182071 2624.955575,1758.330392 2603.263154,1736.415742 2602.555828,1732.399815 2605.203544,1727.022241 2618.558176,1717.532091 2633.966600,1712.035393 2654.102850,1709.187414 2669.568081,1710.400925 2683.066611,1716.986254 2698.599719,1726.231986 2655.393765,1782.182071"/>
    <poly id="10616169" type="leisure.pitch" color="207,245,201" fill="1" layer="-2.00" shape="2543.980599,1785.403320 2501.137805,1750.158284 2565.446561,1672.507650 2608.289505,1707.753120 2543.980599,1785.403320"/>
    <poly id="10616169#1" type="sport.soccer" color="79,230,125" fill="1" layer="-2.00" shape="2543.980599,1785.403320 2501.137805,1750.158284 2565.446561,1672.507650 2608.289505,1707.753120 2543.980599,1785.403320"/>
    <poly id="112215391" type="highway.tertiary" color="26,26,26" fill="0" layer="10.00" shape="560.958412,2410.986339 570.085944,2413.605882 573.525288,2414.797777 576.282241,2415.840128 577.130188,2416.121541 581.518945,2417.560630 587.943427,2419.037378"/>
    <poly id="112215401" type="highway.tertiary" color="26,26,26" fill="0" layer="10.00" shape="619.439234,2432.626292 623.844892,2438.664943 627.155058,2443.868835 632.095766,2448.436227 639.333187,2455.127747"/>
    <poly id="115928475" type="highway.secondary" color="26,26,26" fill="0" layer="10.00" shape="2466.843843,3135.368891 2478.971356,3137.532387 2488.255138,3139.420074 2498.541611,3142.321410 2511.078926,3146.659107 2520.976291,3150.752584 2530.481166,3154.716082 2541.872020,3160.474575 2552.634722,3166.005099 2563.076126,3171.493924 2573.208769,3177.496458 2586.261158,3186.285165 2597.191033,3194.003076 2609.289608,3202.933236 2620.485427,3211.559978 2633.298774,3222.639527 2641.016168,3229.062591 2649.476392,3237.245914 2655.722032,3243.648125 2660.949611,3249.992297 2665.182146,3256.222681 2671.186718,3266.515551 2675.152627,3273.614802 2679.170137,3283.113442 2682.308718,3291.419608 2685.176644,3300.116927 2699.765852,3356.467151 2702.277957,3364.745296 2705.254900,3374.308304 2709.129518,3384.508120 2713.089870,3393.740618 2717.842733,3404.132998 2723.606589,3415.605644 2738.757570,3448.664026 2743.799209,3460.820521 2749.375719,3474.216854 2753.722509,3487.512480 2757.020216,3501.705797 2759.201554,3513.464282 2761.384915,3526.389332 2763.639830,3539.447102 2764.710170,3551.259416 2765.166611,3561.743682 2765.397285,3570.518869 2765.170967,3578.009122 2764.303754,3587.460202 2762.617686,3597.262621 2760.143733,3606.449520 2757.018043,3615.386390 2754.059378,3623.710784 2750.488451,3632.751413 2746.849947,3641.203770 2743.213177,3648.933945 2736.819714,3661.098213 2726.508989,3679.284059 2723.483179,3684.287057 2702.585463,3721.283328 2653.303955,3803.061138 2633.722953,3835.557946 2621.162333,3858.784895 2596.932783,3921.763458 2595.029038,3927.079212"/>
    <poly id="115928476" type="highway.secondary" color="26,26,26" fill="0" layer="10.00" shape="1466.553521,2862.553992 1461.132275,2861.145449 1428.361103,2853.485233"/>
    <poly id="115928477" type="highway.secondary" color="26,26,26" fill="0" layer="10.00" shape="2466.843843,3135.368891 2425.364768,3135.232516"/>
    <poly id="116346319" type="highway.footway" color="26,26,26" fill="0" layer="10.00" shape="628.230999,3076.004849 636.811683,3070.840922 645.345420,3065.677419"/>
    <poly id="116349588" type="highway.service" color="26,26,26" fill="0" layer="10.00" shape="568.181547,3033.757875 570.402205,3023.694582 570.985576,3018.823116 572.320912,3007.778790 576.891047,3001.405697 578.066408,2999.762138 580.238194,2995.709982 585.122102,2990.300736"/>
    <poly id="116352046" type="highway.service" color="26,26,26" fill="0" layer="10.00" shape="1965.387514,1877.562446 1998.345484,1888.245917 2009.816312,1894.791629 2021.805428,1907.010282 2035.037105,1925.373422 2048.015695,1941.616689 2060.706613,1951.696233 2072.412018,1958.228938 2077.095118,1962.966306"/>
    <poly id="116352225" type="highway.trunk_link" color="26,26,26" fill="0" layer="10.00" shape="2100.978110,1232.627613 2095.231761,1229.054782 2090.142402,1225.398567 2085.043878,1221.586891 2080.715227,1217.157571 2076.800383,1212.591392 2073.278845,1207.321904 2068.473688,1199.363599"/>
    <poly id="116352228" type="highway.service" color="26,26,26" fill="0" layer="10.00" shape="2091.453371,1130.538936 2094.985709,1136.152760 2105.050804,1152.143298 2121.005057,1164.594905 2126.866943,1167.022414 2132.689583,1169.439154 2144.835653,1170.568652 2164.401269,1170.401586 2173.053597,1168.594523 2180.456372,1165.331580 2182.858780,1156.911710 2178.579150,1149.048831 2172.698587,1144.432709 2160.922085,1139.822487 2147.545787,1140.425555 2138.446575,1147.669394 2133.313139,1155.357110 2126.866943,1167.022414"/>
    <poly id="116352229" type="highway.service" color="26,26,26" fill="0" layer="10.00" shape="2045.765071,1157.049936 2086.723988,1133.279164 2091.453371,1130.538936 2132.895684,1106.486583"/>
    <poly id="117276865" type="highway.path" color="26,26,26" fill="0" layer="10.00" shape="2140.501195,2235.037504 2128.024878,2223.422753 2124.543214,2219.086162 2116.875645,2205.874896 2107.437797,2198.045044 2105.446215,2195.851122 2074.786413,2180.892213 2066.354244,2174.409275 2051.234233,2154.873430 2033.211343,2125.474309 2021.769145,2114.906388 2012.021259,2110.212434 1981.207837,2104.810142 1971.001637,2101.453413 1965.308484,2098.524649 1948.205412,2089.727479 1904.874048,2064.312150 1875.203970,2049.867888"/>
    <poly id="117278557" type="highway.path" color="26,26,26" fill="0" layer="10.00" shape="2830.515829,2321.406299 2830.477605,2315.018214 2826.660065,2310.706297 2813.756273,2307.637617 2800.109506,2294.453772 2795.708441,2287.791420 2792.084261,2282.277982 2785.390331,2277.579288"/>
    <poly id="117282637" type="highway.path" color="26,26,26" fill="0" layer="10.00" shape="869.418278,2731.758444 870.491447,2726.471645 870.343252,2719.373434 871.467047,2679.599700"/>
    <poly id="117438707" type="highway.track" color="26,26,26" fill="0" layer="10.00" shape="455.011035,1678.269930 222.137965,1543.301984 150.605952,1501.615904 -0.000769,1413.857877"/>
    <poly id="130091873" type="highway.service" color="26,26,26" fill="0" layer="10.00" shape="3636.438495,111.612511 3634.394612,113.507103 3623.825788,123.338502 3611.516758,133.906535 3605.549588,138.644605 3591.802644,149.569037 3576.245785,161.319588 3556.826688,174.768818 3536.977893,187.388417 3507.511554,205.532112 3456.398491,234.744237 3327.431715,310.147212 3230.344282,367.376414 3134.193775,423.132742 3045.354547,474.640624 3022.887198,487.594951 2978.789858,513.407931 2882.804648,568.744601"/>
    <poly id="130126364" type="highway.path" color="26,26,26" fill="0" layer="10.00" shape="2338.680690,1255.109605 2336.067321,1255.320719 2327.242126,1255.206955 2323.045636,1255.242675 2319.059423,1256.065437 2316.462564,1256.376412 2313.258785,1256.214813 2310.079985,1255.308614 2307.036414,1252.812498 2316.209636,1242.301852"/>
    <poly id="130126366" type="highway.path" color="26,26,26" fill="0" layer="10.00" shape="2230.799271,1349.465978 2251.583961,1331.634553 2257.978759,1330.469021 2294.590619,1325.868527 2338.680690,1255.109605"/>
    <poly id="130126367" type="highway.path" color="26,26,26" fill="0" layer="10.00" shape="2447.879051,1271.191117 2439.794785,1287.325224 2383.075556,1260.598193 2377.019638,1258.349862 2372.755876,1256.919566 2367.241803,1256.699816 2353.486628,1256.916814 2346.449061,1257.087792 2341.454255,1256.241471 2338.680690,1255.109605 2334.586364,1250.589238 2329.730833,1247.708561 2322.202504,1245.417263 2320.254979,1244.745005 2316.209636,1242.301852 2310.233679,1236.575390"/>
    <poly id="130126368" type="highway.path" color="26,26,26" fill="0" layer="10.00" shape="2249.710599,1277.199072 2254.618469,1290.811765 2255.222764,1294.650768 2255.212184,1297.084008 2254.005059,1299.682991 2252.556241,1301.484094 2249.769386,1303.385484 2225.697070,1320.411678"/>
    <poly id="130126760" type="highway.trunk_link" color="26,26,26" fill="0" layer="10.00" shape="2156.595483,1553.761679 2156.584036,1539.585059"/>
    <poly id="130127256" type="highway.path" color="26,26,26" fill="0" layer="10.00" shape="2172.973620,1292.230337 2179.086836,1290.178307 2181.586419,1287.646051 2183.456916,1284.796967 2185.409893,1280.602836 2186.738864,1275.769636 2186.875325,1270.657745 2186.348961,1259.440859"/>
    <poly id="130128593" type="highway.footway" color="26,26,26" fill="0" layer="10.00" shape="2695.200242,1144.405168 2691.129011,1145.372844 2689.370119,1145.709911"/>
    <poly id="130128595" type="highway.footway" color="26,26,26" fill="0" layer="10.00" shape="2568.852070,1380.512061 2563.301492,1375.970557 2561.011693,1353.380572 2564.350575,1342.697533 2569.801011,1325.252673 2594.668675,1271.679418 2592.423689,1257.143988 2588.603355,1231.333876 2583.460269,1207.434825 2576.664863,1178.894578 2575.656751,1174.503455 2575.522216,1170.638224 2575.798967,1166.336208 2576.807351,1161.516922 2578.556970,1157.313532 2581.249526,1152.579972 2588.319515,1141.432046 2602.181098,1119.538546 2605.487720,1113.344354 2608.168746,1107.244342 2610.528016,1101.058174 2612.889666,1094.227592 2614.633827,1087.524450 2616.231606,1080.178154 2616.917077,1074.206142 2617.176182,1067.815550 2616.992958,1058.195618 2616.612442,1050.243894 2615.717974,1043.551981 2614.488293,1035.185256 2611.157488,1018.181428 2612.858431,1016.544931"/>
    <poly id="130128596" type="highway.service" color="26,26,26" fill="0" layer="10.00" shape="2598.555226,1359.861993 2661.630815,1365.361006 2745.401408,1368.230466 2756.773333,1368.612176 2765.051720,1368.897809"/>
    <poly id="130128597" type="highway.footway" color="26,26,26" fill="0" layer="10.00" shape="2606.286708,946.917036 2613.864352,948.530533 2622.515894,953.056947 2628.648067,957.815789 2628.676460,961.170846 2627.024963,964.951199 2620.159497,972.542061 2609.653655,980.208190"/>
    <poly id="130128598" type="highway.steps" color="26,26,26" fill="0" layer="10.00" shape="2697.123646,1144.077822 2695.200242,1144.405168"/>
    <poly id="130128599" type="highway.footway" color="26,26,26" fill="0" layer="10.00" shape="2697.966939,1164.180260 2694.863501,1171.261507 2694.918801,1173.172004"/>
    <poly id="130128600" type="highway.steps" color="26,26,26" fill="0" layer="10.00" shape="2699.986065,1159.430224 2697.966939,1164.180260"/>
    <poly id="130128601" type="highway.footway" color="26,26,26" fill="0" layer="10.00" shape="2697.123646,1144.077822 2699.749068,1143.433457 2733.173356,1134.873896"/>
    <poly id="130128602" type="highway.footway" color="26,26,26" fill="0" layer="10.00" shape="2686.723664,1177.207645 2662.403982,1188.323573 2660.036550,1192.621047 2635.044670,1217.741697"/>
    <poly id="130128603" type="highway.service" color="26,26,26" fill="0" layer="10.00" shape="2599.288933,1214.433552 2605.596976,1207.625097 2615.969398,1197.193627"/>
    <poly id="130128604" type="highway.footway" color="26,26,26" fill="0" layer="10.00" shape="2686.502081,1146.367442 2684.000805,1146.877441"/>
    <poly id="130128605" type="highway.service" color="26,26,26" fill="0" layer="10.00" shape="2492.101953,1253.672570 2494.698093,1248.662032 2499.777081,1240.975077 2504.974645,1234.342595 2510.294937,1228.331251 2516.636630,1222.733440 2523.227260,1217.866801 2530.854010,1213.302471 2538.574804,1209.670615 2556.693689,1201.417649 2565.959920,1197.206107"/>
    <poly id="130128606" type="highway.service" color="26,26,26" fill="0" layer="10.00" shape="2661.630815,1365.361006 2662.877549,1344.285403 2664.124105,1323.187583 2665.823410,1294.519846 2665.771167,1288.342983 2665.209113,1281.137178 2663.990154,1274.025811 2662.444149,1267.128306 2659.783068,1260.773525 2656.475470,1253.890923 2651.370542,1246.501345 2646.703424,1240.885708 2640.252159,1235.396275 2632.752603,1230.015712 2624.525073,1225.585691 2599.288933,1214.433552 2583.460269,1207.434825 2573.604754,1202.163171 2565.959920,1197.206107 2561.755469,1191.686604 2557.663931,1185.632854"/>
    <poly id="130128607" type="highway.secondary" color="26,26,26" fill="0" layer="10.00" shape="2660.165831,1109.781867 2643.541471,1078.169386 2641.460363,1070.965327 2639.955223,1064.278578"/>
    <poly id="130128608" type="highway.footway" color="26,26,26" fill="0" layer="10.00" shape="2701.927240,1155.647440 2699.986065,1159.430224"/>
    <poly id="130128609" type="highway.steps" color="26,26,26" fill="0" layer="10.00" shape="2689.370119,1145.709911 2686.502081,1146.367442"/>
    <poly id="130128611" type="highway.footway" color="26,26,26" fill="0" layer="10.00" shape="2699.749068,1143.433457 2702.541984,1153.342421 2701.927240,1155.647440 2699.928420,1157.241991 2697.657897,1157.261182 2695.862091,1156.009792 2694.458634,1153.932927 2691.129011,1145.372844 2689.413697,1140.676596 2687.816130,1137.868096 2685.933442,1136.528561 2684.146551,1136.332574 2681.107108,1137.091549 2679.820139,1137.680164"/>
    <poly id="130129857" type="highway.service" color="26,26,26" fill="0" layer="10.00" shape="2728.475741,1278.580318 2722.091925,1280.134136 2716.872509,1281.422586 2706.579059,1283.598301 2705.321284,1300.607629"/>
    <poly id="130129860" type="highway.service" color="26,26,26" fill="0" layer="10.00" shape="2667.282617,1207.836366 2653.560854,1222.195786 2665.095256,1235.274987 2669.680592,1240.480249 2684.710550,1279.905679 2706.579059,1283.598301"/>
    <poly id="130146012" type="highway.service" color="26,26,26" fill="0" layer="10.00" shape="2797.547113,2027.928851 2803.346203,2023.969100 2804.706644,2021.902221 2806.685384,2018.885752 2833.263319,1961.199248 2840.772496,1952.058838"/>
    <poly id="130147299" type="highway.service" color="26,26,26" fill="0" layer="10.00" shape="2841.934049,1562.389866 2844.029351,1570.393810 2846.673886,1578.537557 2849.975607,1587.553477 2853.923928,1596.186199 2858.252612,1605.360120 2862.276881,1611.859037 2866.988428,1619.085442 2874.354125,1629.100383 2882.373954,1638.698742 2892.803244,1650.854396 2911.507248,1673.139607"/>
    <poly id="130207184" type="highway.unclassified" color="26,26,26" fill="0" layer="10.00" shape="2182.864789,975.947565 2166.431779,993.675379"/>
    <poly id="130207187" type="highway.unclassified" color="26,26,26" fill="0" layer="10.00" shape="2205.707474,939.466536 2182.864789,975.947565"/>
    <poly id="130212556" type="highway.tertiary" color="26,26,26" fill="0" layer="10.00" shape="1647.704001,2375.735088 1663.757778,2379.996368"/>
    <poly id="130212557" type="highway.tertiary" color="26,26,26" fill="0" layer="10.00" shape="1747.331965,2435.194701 1715.763432,2419.223212 1700.659830,2410.742809 1682.746806,2400.564551 1667.358246,2391.731152 1659.852729,2387.418387"/>
    <poly id="130212558" type="highway.tertiary" color="26,26,26" fill="0" layer="10.00" shape="1659.852729,2387.418387 1647.704001,2375.735088"/>
    <poly id="130277473" type="highway.footway" color="26,26,26" fill="0" layer="10.00" shape="1737.808459,893.623263 1734.460572,931.338144"/>
    <poly id="130277474" type="highway.trunk_link" color="26,26,26" fill="0" layer="10.00" shape="2068.473688,1199.363599 2075.351495,1203.393362 2081.869318,1205.615236 2092.140723,1210.027082 2099.838734,1214.749807 2107.404490,1219.573664 2115.314255,1226.172235 2126.034629,1234.568887 2136.981787,1242.019247 2149.864175,1249.619753 2156.836634,1252.826635 2164.022236,1255.320648 2171.890929,1257.120000 2178.910832,1258.548857 2186.348961,1259.440859 2193.395396,1259.391840 2200.274668,1259.022056 2207.969664,1257.900933 2215.799620,1256.078721 2223.351671,1253.803368 2231.433812,1250.334704 2238.619919,1246.462611 2244.451473,1242.590962 2250.015418,1238.554946 2255.908047,1232.660718 2264.119753,1223.258108 2271.096817,1214.143786 2280.327606,1201.199450 2286.265377,1191.405162 2291.682290,1182.048617 2298.298274,1170.059843 2312.790696,1143.294018"/>
    <poly id="130277475" type="highway.service" color="26,26,26" fill="0" layer="10.00" shape="2045.765071,1157.049936 2059.266739,1181.177053 2068.473688,1199.363599"/>
    <poly id="130293861" type="highway.residential" color="26,26,26" fill="0" layer="10.00" shape="1683.081295,2423.937761 1675.647406,2441.556113 1671.822816,2451.043950 1641.700475,2523.809540 1632.304522,2548.988774 1626.464325,2563.471449 1607.464619,2610.576457 1575.980440,2688.631559"/>
    <poly id="130293862" type="highway.residential" color="26,26,26" fill="0" layer="10.00" shape="1547.934279,2813.887111 1544.115775,2805.909561 1543.634162,2799.091985 1543.240804,2793.429120 1542.276666,2778.782937 1542.708883,2772.635195 1543.101623,2767.354400 1544.729803,2761.007450 1548.882286,2749.650158 1557.088792,2735.469161"/>
    <poly id="130293863" type="highway.secondary" color="26,26,26" fill="0" layer="10.00" shape="1544.115775,2805.909561 1550.947134,2805.628335 1567.805005,2804.316139 1651.008748,2798.031848 1702.761536,2797.385808"/>
    <poly id="130293864" type="highway.footway" color="26,26,26" fill="0" layer="10.00" shape="1559.221233,2797.468547 1560.921087,2794.887381 1576.992699,2784.104899 1589.635945,2775.163036 1589.376498,2770.498942"/>
    <poly id="130293865" type="highway.residential" color="26,26,26" fill="0" layer="10.00" shape="1683.081295,2423.937761 1683.960216,2412.375465 1683.789882,2407.143977 1682.746806,2400.564551"/>
    <poly id="130293866" type="highway.residential" color="26,26,26" fill="0" layer="10.00" shape="1700.659830,2410.742809 1695.505035,2412.131562 1690.761618,2414.927785 1683.081295,2423.937761"/>
    <poly id="130294617" type="highway.residential" color="26,26,26" fill="0" layer="10.00" shape="1472.055945,2957.488554 1481.123955,2961.509815 1484.219964,2962.882935 1490.360551,2966.018485 1504.457800,2974.107104 1535.460778,2991.915602 1537.569199,2993.141738 1544.240289,2996.983816 1673.289190,3070.709209 1678.724761,3073.806577 1684.294344,3077.013897 1829.832257,3160.732969 1832.223287,3162.067876 1838.342314,3165.470593"/>
    <poly id="130297182" type="highway.footway" color="26,26,26" fill="0" layer="10.00" shape="1540.031071,2757.159436 1526.248219,2790.931705 1524.169734,2794.082780 1522.269506,2796.121283 1519.484210,2798.100775 1516.523642,2799.726253 1513.696476,2800.483974 1510.442119,2800.723204 1505.822152,2800.552051 1505.891969,2795.951774"/>
    <poly id="130297184" type="highway.steps" color="26,26,26" fill="0" layer="10.00" shape="1505.891969,2795.951774 1501.335482,2795.880068 1501.642217,2784.278240"/>
    <poly id="130297185" type="highway.footway" color="26,26,26" fill="0" layer="10.00" shape="1544.729803,2761.007450 1540.031071,2757.159436 1527.086092,2746.583173 1510.606237,2734.593152 1507.576152,2732.708373 1502.077587,2731.422676"/>
    <poly id="130298106" type="highway.tertiary" color="26,26,26" fill="0" layer="10.00" shape="1456.259695,2252.797643 1462.457313,2256.110446 1483.497482,2272.038406"/>