<?xml version="1.0" encoding="UTF-8"?>

<!-- generated on Mon Jun 10 10:01:56 2019 by Eclipse SUMO polyconvert Version 1.1.0
<configuration xmlns:xsi="http://www.w3.org/2001/XMLSchema-instance" xsi:noNamespaceSchemaLocation="http://sumo.dlr.de/xsd/polyconvertConfiguration.xsd">

    <input>
        <net-file value="unicamp.net.xml"/>
        <osm-files value="unicamp.osm"/>
        <osm.keep-full-type value="true"/>
    </input>

    <output>
        <output-file value="unicamp.poly.xml"/>
    </output>

    <processing>
        <poi-layer-offset value="5"/>
    </processing>

</configuration>
-->

<additional xmlns:xsi="http://www.w3.org/2001/XMLSchema-instance" xsi:noNamespaceSchemaLocation="http://sumo.dlr.de/xsd/additional_file.xsd">
    <location netOffset="-283054.14,2527996.93" convBoundary="-1627.41,-2558.03,6768.36,10574.38" origBoundary="-47.230712,-22.869486,-47.047832,-22.750422" projParameter="+proj=utm +zone=23 +ellps=WGS84 +datum=WGS84 +units=m +no_defs"/>

    <poly id="104309172" type="amenity.college" color="237,199,199" fill="1" layer="-1.00" shape="4704.752522,3249.075063 4789.160265,3249.104726 4789.164264,3267.160225 4704.756421,3267.130571 4704.752522,3249.075063"/>
    <poly id="104628653" type="natural.water" color="181,209,209" fill="1" layer="-4.00" shape="4674.552279,3873.182417 4673.295664,3805.240908 4710.504424,3823.285566 4741.101149,3841.248659 4761.749457,3861.254621 4865.821791,3904.149584 4997.526707,3973.638100 5021.049380,3995.954608 5055.908204,4043.330433 5079.357950,4076.024893 5070.174314,4095.347659 5078.883513,4109.980126 5058.919845,4119.559642 5007.458831,4096.930286 4851.384819,3990.680124 4756.563127,3917.054190 4674.552279,3873.182417"/>
    <poly id="104628654" type="building.yes" color="255,230,230" fill="1" layer="-1.00" shape="5340.425156,3813.004812 5384.466838,3789.593613 5369.983797,3762.640763 5382.388123,3756.056947 5389.905107,3770.030135 5404.037140,3762.528872 5377.242771,3712.685493 5336.325700,3734.434421 5334.018710,3735.653912 5336.691345,3740.609367 5309.327094,3755.148010 5330.196022,3793.964824 5340.425156,3813.004812"/>
    <poly id="109496243" type="building.university" color="255,230,230" fill="1" layer="-1.00" shape="4762.551059,3275.006812 4793.768490,3275.687465 4792.765113,3321.698184 4761.547588,3321.017537 4762.551059,3275.006812"/>
    <poly id="109496245" type="building.university" color="255,230,230" fill="1" layer="-1.00" shape="4695.409230,3276.858186 4725.291203,3276.844584 4725.302882,3294.346350 4695.420875,3294.359954 4695.409230,3276.858186"/>
    <poly id="109496247" type="building.university" color="255,230,230" fill="1" layer="-1.00" shape="5077.453321,3299.682441 5078.931712,3276.928918 5100.332715,3278.313574 5097.561210,3320.854588 5088.604770,3320.275256 5089.898083,3300.476690 5077.453321,3299.682441"/>
    <poly id="109496249" type="building.university" color="255,230,230" fill="1" layer="-1.00" shape="5073.769327,3334.035921 5080.331627,3336.930109 5078.572100,3340.859983 5096.819931,3348.913187 5099.184001,3343.607143 5103.735848,3345.609222 5102.113663,3349.264094 5122.208794,3358.129545 5116.823548,3370.205688 5097.075458,3361.489082 5094.700809,3366.817132 5115.918642,3376.174588 5110.140982,3389.142478 5089.994789,3380.254147 5087.461182,3385.934437 5080.817344,3382.994807 5083.043313,3378.019142 5064.724049,3369.931695 5070.861956,3356.171315 5091.202090,3365.139924 5093.704119,3359.514578 5067.556932,3347.983568 5073.769327,3334.035921"/>
    <poly id="109496251" type="building.university" color="255,230,230" fill="1" layer="-1.00" shape="4753.508494,3324.593631 4741.184922,3324.675883 4740.862871,3276.530897 4751.912876,3276.464051 4752.054003,3297.191022 4756.870459,3297.158753 4756.909822,3303.883020 4753.366740,3303.910960 4753.508494,3324.593631"/>
    <poly id="109496255" type="building.university" color="255,230,230" fill="1" layer="-1.00" shape="4773.291065,3339.636133 4773.042987,3324.346457 4794.796783,3324.008473 4795.044882,3339.298147 4773.291065,3339.636133"/>
    <poly id="109496257" type="building.university" color="255,230,230" fill="1" layer="-1.00" shape="5020.545639,3284.176732 5021.660457,3252.179952 5042.577764,3252.904391 5041.462991,3284.901169 5020.545639,3284.176732"/>
    <poly id="109496258" type="building.university" color="255,230,230" fill="1" layer="-1.00" shape="5000.085980,3286.704210 5000.848798,3266.665606 5018.819607,3267.348876 5018.067235,3287.376548 5000.085980,3286.704210"/>
    <poly id="127066859" type="highway.secondary_link" color="26,26,26" fill="0" layer="10.00" shape="1960.411197,2277.768987 2018.311775,2157.007498 2035.716782,2123.668440"/>
    <poly id="127066865" type="highway.motorway_link" color="26,26,26" fill="0" layer="10.00" shape="1477.161552,2887.084411 1483.203310,2872.371180 1484.980768,2863.634391 1484.342032,2856.558062 1481.302128,2851.530107 1472.122498,2845.716995"/>
    <poly id="127068197" type="highway.motorway_link" color="26,26,26" fill="0" layer="10.00" shape="1481.092884,2834.468257 1486.421903,2839.550911 1489.704420,2841.237003 1495.194082,2842.965549 1499.051899,2842.466533 1503.692078,2839.663505 1537.380218,2811.707232"/>
    <poly id="127068198" type="highway.secondary" color="26,26,26" fill="0" layer="10.00" shape="1558.351455,3134.495385 1509.084679,3144.407147 1394.061237,3175.637845 1255.759303,3255.830033 1125.694791,3337.235021 976.862956,3421.107726"/>
    <poly id="128142545" type="highway.motorway" color="26,26,26" fill="0" layer="10.00" shape="3526.935773,715.551518 3514.256851,770.846813 3496.301274,818.081144 3470.441953,870.997347 3439.287954,916.395065 3433.960925,922.833277 3395.020031,969.982072 3349.245639,1013.157418 3303.318123,1043.879839 3190.143303,1120.176857 3104.642109,1172.904149 3009.044984,1234.527315 2942.561202,1277.564116 2848.966861,1336.866341 2764.449540,1393.172671 2688.741811,1450.157069 2643.966391,1488.515091 2594.671301,1534.972885 2525.733538,1603.938160 2422.610153,1728.990024 2243.162526,1956.298508 2172.823066,2045.668885 2087.768441,2146.638577"/>
    <poly id="142770064" type="highway.residential" color="26,26,26" fill="0" layer="10.00" shape="3786.452610,1227.710807 3825.546890,1256.429967 3860.113251,1289.538277 3909.616221,1348.378120 3934.297101,1395.968862 3992.071921,1490.902923 4030.378102,1553.118394 4049.601464,1584.348916"/>
    <poly id="142770072" type="highway.residential" color="26,26,26" fill="0" layer="10.00" shape="4067.762931,1775.162324 4049.601464,1584.348916 4046.004310,1546.614288 4038.006069,1462.604403 4027.234267,1348.027191 4019.401832,1264.662056 4013.568725,1202.681545 4005.829915,1177.660467"/>
    <poly id="142770075" type="highway.residential" color="26,26,26" fill="0" layer="10.00" shape="3825.546890,1256.429967 4019.401832,1264.662056"/>
    <poly id="142770085" type="highway.residential" color="26,26,26" fill="0" layer="10.00" shape="3799.628485,1170.605730 3786.452610,1227.710807 3784.823471,1234.766115 3757.769147,1317.906296 3741.834816,1373.288810 3734.537123,1398.641152 3725.941679,1408.234724"/>
    <poly id="142770087" type="highway.residential" color="26,26,26" fill="0" layer="10.00" shape="3757.769147,1317.906296 3782.106871,1330.023780 3800.268667,1350.539326 3829.491182,1387.648834 3920.835011,1534.774252 4067.762931,1775.162324"/>
    <poly id="142770091" type="highway.residential" color="26,26,26" fill="0" layer="10.00" shape="3653.358268,1164.204084 3653.008537,1181.745229 3660.183433,1214.689777 3670.342387,1237.695909 3672.309598,1241.633816 3686.134994,1269.676243"/>
    <poly id="142770092" type="highway.residential" color="26,26,26" fill="0" layer="10.00" shape="3714.439137,1167.800290 3698.453896,1231.168613 3698.105601,1232.570495 3686.134994,1269.676243 3659.463194,1351.857984"/>
    <poly id="142813960" type="amenity.college" color="237,199,199" fill="1" layer="-1.00" shape="4564.285653,3669.206649 4651.714799,3702.975305 4665.007257,3668.922543 4577.588561,3635.154093 4564.285653,3669.206649"/>
    <poly id="142813960#1" type="building.yes" color="255,230,230" fill="1" layer="-1.00" shape="4564.285653,3669.206649 4651.714799,3702.975305 4665.007257,3668.922543 4577.588561,3635.154093 4564.285653,3669.206649"/>
    <poly id="146276264" type="amenity.public_building" color="237,199,199" fill="1" layer="-1.00" shape="5320.084866,3226.563550 5269.648489,3226.357742 5269.577788,3244.655838 5320.014226,3244.861641 5320.084866,3226.563550"/>
    <poly id="146276264#1" type="building.yes" color="255,230,230" fill="1" layer="-1.00" shape="5320.084866,3226.563550 5269.648489,3226.357742 5269.577788,3244.655838 5320.014226,3244.861641 5320.084866,3226.563550"/>
    <poly id="146276265" type="building.yes" color="255,230,230" fill="1" layer="-1.00" shape="5321.261214,3162.167660 5272.209987,3160.585488 5271.871859,3170.826924 5293.036049,3171.510167 5292.729913,3180.932357 5270.467499,3180.211623 5270.118699,3191.217218 5291.662780,3191.905766 5291.390012,3200.409036 5269.620210,3199.706260 5269.061755,3216.900929 5287.218832,3217.475718 5287.041626,3222.812321 5299.481620,3223.207568 5299.861291,3211.460251 5319.763057,3212.103671 5320.092894,3201.718121 5299.103196,3201.037356 5299.390864,3192.201986 5319.918710,3192.865227 5320.281142,3181.616132 5299.424782,3180.948303 5299.502344,3178.335232 5299.716009,3171.858214 5320.921264,3172.541992 5321.261214,3162.167660"/>
    <poly id="147379106" type="highway.residential" color="26,26,26" fill="0" layer="10.00" shape="3847.154852,3403.906729 3960.356401,3281.977886 4070.101605,3161.816439 4156.457365,3066.969249"/>
    <poly id="147379107" type="highway.residential" color="26,26,26" fill="0" layer="10.00" shape="3684.859264,3256.991499 3796.190107,3134.494743 3902.567770,3012.138160 4004.060295,2902.628139"/>
    <poly id="147379108" type="highway.residential" color="26,26,26" fill="0" layer="10.00" shape="3797.616456,2912.597578 3741.079125,2864.359376 3687.170870,2813.931439 3630.891691,2765.641002 3591.342659,2730.291247 3566.126228,2703.118668 3589.801983,2467.776698"/>
    <poly id="147379110" type="highway.cycleway" color="26,26,26" fill="0" layer="10.00" shape="4632.828557,3125.357107 4620.551820,3113.310617 4599.357420,3097.926858 4583.270118,3089.615271 4577.388413,3087.262080 4536.568251,3076.466014"/>
    <poly id="147379112" type="highway.residential" color="26,26,26" fill="0" layer="10.00" shape="3641.221364,3679.243282 3667.640799,3840.032511 3680.369015,3936.792148 3695.272146,4030.070919 3695.469171,4034.316190 3696.642738,4061.859098"/>
    <poly id="147379113" type="highway.residential" color="26,26,26" fill="0" layer="10.00" shape="3737.357854,3332.566455 3730.989204,3302.048271"/>
    <poly id="147379114" type="highway.residential" color="26,26,26" fill="0" layer="10.00" shape="3633.670809,2984.030802 3741.079125,2864.359376 3849.303405,2741.309235"/>
    <poly id="147379115" type="highway.tertiary" color="26,26,26" fill="0" layer="10.00" shape="5774.928888,1330.426508 5850.178062,1288.408519 5865.405564,1280.955541 5881.464607,1271.298755 5897.841074,1260.228533 5910.527988,1249.417036 5921.335730,1237.150423 5929.125189,1226.337130 5941.454388,1214.667705 5953.236655,1202.458959 5969.594161,1191.266560 5986.745713,1183.507972 5999.395666,1179.762962 6033.577641,1175.885842 6043.069182,1174.810649 6069.574901,1166.251784 6086.161473,1158.507376 6102.528274,1149.585741 6156.266569,1120.802842 6176.935562,1110.379176 6196.239269,1103.625089 6228.079704,1096.823896 6259.380115,1094.888956 6266.650681,1093.306422 6275.335436,1088.963261"/>
    <poly id="147379116" type="highway.tertiary" color="26,26,26" fill="0" layer="10.00" shape="4837.227578,2307.858999 4836.973574,2301.065261 4832.844218,2295.313890 4811.151124,2284.088284 4756.140878,2258.029239 4747.630769,2251.286021 4741.629194,2242.118844 4738.747144,2230.890731 4737.443344,2222.077350 4736.446974,2211.108264 4736.641762,2200.133708 4738.445000,2184.285657 4744.779230,2156.504702 4750.755407,2137.425236 4758.186657,2117.823375 4764.194415,2107.484082 4773.575719,2096.737878 4778.479142,2091.201599 4836.060734,2029.633464 4893.883575,1964.734358 4987.806715,1863.177014 5063.105074,1779.835055 5144.016187,1689.349099 5159.149297,1676.955121 5177.108436,1665.852337 5198.900717,1653.772964 5252.740002,1623.908827 5288.845334,1605.194894"/>
    <poly id="147379501" type="highway.residential" color="26,26,26" fill="0" layer="10.00" shape="3619.237856,3516.334172 3689.492988,3505.713925 3762.969792,3493.089418 3835.193880,3481.178039 3876.323299,3476.605374 3891.700749,3466.752495 3905.185055,3454.967749 4015.290864,3331.909457 4125.058940,3212.301799 4206.208692,3121.092031"/>
    <poly id="147412853" type="highway.residential" color="26,26,26" fill="0" layer="10.00" shape="4229.334240,4317.687358 4223.974766,4158.014984 4219.395932,4055.444314 4219.340316,4041.840993 4216.684059,3938.388962 4209.156467,3923.041409"/>
    <poly id="147412859" type="highway.residential" color="26,26,26" fill="0" layer="10.00" shape="4764.036830,4463.972344 4758.700894,4300.734269 4749.785954,4135.695908 4746.920968,3974.984634 4747.545383,3938.439429 4748.775556,3926.116920"/>
    <poly id="147412866" type="highway.residential" color="26,26,26" fill="0" layer="10.00" shape="4612.770247,4471.126646 4608.268287,4306.382503 4602.290338,4142.193649 4597.225584,3978.815078 4595.199621,3855.843485"/>
    <poly id="147412875" type="highway.residential" color="26,26,26" fill="0" layer="10.00" shape="4712.662978,5101.473775 4708.050276,4959.181319 4702.793894,4796.852706 4697.440754,4631.919612 4690.122383,4468.011278 4686.783984,4302.984444 4675.559022,4140.162253 4670.587487,4017.747673 4668.924011,3976.662103 4666.197827,3886.058722"/>
    <poly id="147416171" type="highway.residential" color="26,26,26" fill="0" layer="10.00" shape="3119.367772,2896.873450 3055.869582,2919.992536 3021.052920,2935.717980 2933.919612,2956.409384 2801.923244,2974.871385 2745.197464,2997.542156 2709.139462,3012.418603 2699.195242,3022.158814"/>
    <poly id="147417229" type="highway.residential" color="26,26,26" fill="0" layer="10.00" shape="2772.850251,1611.599372 2701.365921,1751.035276 2653.872274,1845.759669 2573.273613,2005.115810 2506.662416,2137.353433 2437.172583,2271.942757 2423.200901,2297.820516"/>
    <poly id="147417233" type="highway.residential" color="26,26,26" fill="0" layer="10.00" shape="3215.841654,1641.894002 2980.045697,1594.577798 2874.973841,1574.450378 2861.465944,1577.050893 2853.535361,1591.859671"/>
    <poly id="147419826" type="highway.residential" color="26,26,26" fill="0" layer="10.00" shape="3302.148993,1723.608746 3282.282152,1781.760138 3272.224879,1811.969482 3251.942987,1875.509534 3243.721292,1903.695500 3232.246819,1949.924453 3201.328034,2048.329066 3198.631229,2055.347119 3194.526087,2065.391500 3155.114377,2192.964039 3115.368127,2256.893932 3072.326238,2286.582252 3048.546018,2298.896593 3024.818452,2307.478663"/>
    <poly id="147419832" type="highway.unclassified" color="26,26,26" fill="0" layer="10.00" shape="4466.704598,1194.668131 4322.639522,1157.731350 4129.876242,1154.491951 4039.347051,1168.561159 4005.829915,1177.660467"/>
    <poly id="147419834" type="highway.service" color="26,26,26" fill="0" layer="10.00" shape="3548.596412,1783.221253 3546.903110,1770.768933 3546.548899,1768.216218 3534.132624,1672.202520 3523.529767,1662.471467 3521.942543,1657.796735 3522.843497,1652.880134 3525.386948,1647.986677 3530.364582,1646.683254 3535.030248,1647.845621 3539.337761,1654.751937 3555.639519,1789.091622"/>
    <poly id="147419839" type="highway.residential" color="26,26,26" fill="0" layer="10.00" shape="3106.683696,1303.177540 3131.011326,1461.436130"/>
    <poly id="147419841" type="highway.residential" color="26,26,26" fill="0" layer="10.00" shape="4005.829915,1177.660467 3799.628485,1170.605730 3721.335524,1168.030317 3714.439137,1167.800290 3653.358268,1164.204084 3565.134165,1160.358120"/>
    <poly id="147419849" type="highway.tertiary" color="26,26,26" fill="0" layer="10.00" shape="3591.980370,1275.705265 3615.441288,1314.340256 3635.586043,1336.202125 3659.463194,1351.857984 3698.533159,1372.834252 3734.537123,1398.641152 3764.435243,1435.893225 3851.524044,1577.464980 3978.267036,1786.310616 4013.913242,1844.977226 4130.508261,2036.852475 4148.602830,2066.637984 4176.615713,2111.084731 4196.693817,2142.947267 4200.329826,2148.714065 4235.555383,2206.753750 4236.809550,2208.842759 4277.553413,2272.442906 4318.127647,2337.912540 4359.286529,2406.381020 4360.614147,2408.360276 4395.798518,2465.767490 4398.518648,2470.225368 4439.150172,2536.814144 4477.911847,2600.574077 4507.928452,2653.123219 4515.887014,2661.132678 4525.198805,2667.100783"/>
    <poly id="147419851" type="highway.residential" color="26,26,26" fill="0" layer="10.00" shape="3261.464863,1488.045568 3277.691675,1570.001234 3292.066190,1660.271775 3302.148993,1723.608746"/>
    <poly id="147419852" type="highway.residential" color="26,26,26" fill="0" layer="10.00" shape="3185.154500,2595.751785 3118.282435,2627.386004 3030.299505,2624.748531 2947.175876,2598.673576 2912.859997,2583.345611"/>
    <poly id="147424238" type="highway.residential" color="26,26,26" fill="0" layer="10.00" shape="2403.402707,2507.485115 2344.947671,2473.237636 2281.899618,2447.199462 2228.294468,2412.754341 2167.990671,2378.590678 2124.608918,2352.409609 2117.497472,2348.476086"/>
    <poly id="147424240" type="highway.residential" color="26,26,26" fill="0" layer="10.00" shape="2204.757855,2641.119554 2209.282595,2626.883080 2226.212096,2577.098591 2258.672557,2492.873763 2281.899618,2447.199462 2290.435342,2428.156930 2293.484853,2412.946907 2292.081689,2401.096641 2282.682145,2387.615522 2270.270643,2373.648635 2260.728726,2365.870210 2238.142962,2347.450120 2184.100754,2312.721673 2148.397300,2292.509304 2146.400842,2291.373285 2115.263189,2272.864976"/>
    <poly id="147424246" type="highway.residential" color="26,26,26" fill="0" layer="10.00" shape="2009.829582,2484.959490 2079.445669,2349.044238"/>
    <poly id="147424249" type="highway.residential" color="26,26,26" fill="0" layer="10.00" shape="2344.947671,2473.237636 2359.084611,2453.111301 2361.852611,2415.720856 2358.990959,2381.418743"/>
    <poly id="147424251" type="highway.residential" color="26,26,26" fill="0" layer="10.00" shape="2261.821300,2726.513130 2196.469426,2723.128049 2136.382019,2723.594616 2117.865880,2723.741995"/>
    <poly id="147424254" type="highway.residential" color="26,26,26" fill="0" layer="10.00" shape="1746.049631,2584.521308 1897.490643,2674.779019 1943.313514,2602.774108 1975.368133,2545.827026 2009.829582,2484.959490"/>
    <poly id="147427486" type="highway.residential" color="26,26,26" fill="0" layer="10.00" shape="2078.784208,1487.154015 2110.289229,1431.140604 2142.078114,1374.643776 2171.979105,1320.933727 2208.064459,1256.112315"/>
    <poly id="147428321" type="highway.residential" color="26,26,26" fill="0" layer="10.00" shape="1790.474189,3460.990599 1770.742136,3454.130692 1654.285484,3278.875753 1607.444428,3208.368781 1558.351455,3134.495385"/>
    <poly id="147428322" type="highway.residential" color="26,26,26" fill="0" layer="10.00" shape="2388.270185,3414.687010 2363.947428,3420.911461 2326.493899,3420.381240 2277.953366,3423.958620 2249.296541,3425.867898 2233.623398,3426.786855 2189.634444,3438.160265 2158.565113,3453.061912 2112.538574,3483.569692 2096.136476,3504.760428"/>
    <poly id="147428323" type="highway.residential" color="26,26,26" fill="0" layer="10.00" shape="2034.552469,1085.499499 2071.817261,1124.255639 2078.745088,1130.955933 2120.990377,1171.842947 2162.871211,1212.381259 2208.064459,1256.112315 2225.829896,1273.301187"/>
    <poly id="147428325" type="highway.residential" color="26,26,26" fill="0" layer="10.00" shape="1889.343144,1456.273912 1807.991304,1607.452049 1724.869420,1758.804116 1633.337249,1905.771603"/>
    <poly id="147428326" type="highway.residential" color="26,26,26" fill="0" layer="10.00" shape="1795.243238,1187.201781 1832.035208,1205.735951 1877.145481,1228.497792"/>
    <poly id="147428327" type="highway.residential" color="26,26,26" fill="0" layer="10.00" shape="1832.035208,1205.735951 1915.847674,1052.499190 1968.710892,955.825922"/>
    <poly id="148999689" type="landuse.farmland" color="194,194,130" fill="1" layer="-3.00" shape="3948.296328,204.518870 3882.831317,199.764906 3827.599730,210.496472 3782.742998,231.764236 3690.436725,290.701252 3634.836908,328.255655 3618.361015,346.311742 3605.743277,360.146435 3594.379183,387.014355 3591.976771,424.166254 3589.881217,495.639266 3596.351705,602.568864 3601.827170,721.835355 3598.797303,780.933162 3590.447955,833.553465 3572.327814,907.780378 3565.591700,947.186302 3565.795306,985.925699 3568.276510,1025.516891 3572.635785,1146.052550 3578.579124,1154.898253 3614.424955,1155.436492 3939.143565,1168.193306 4026.205330,1169.993641 4044.421440,1162.551205 4093.553320,1155.033774 4152.101526,907.775359 4290.289788,754.738043 4346.491721,282.405340 4339.583344,264.784453 3948.296328,204.518870"/>
    <poly id="149000611" type="natural.water" color="181,209,209" fill="1" layer="-4.00" shape="5463.834975,2578.986168 5459.163252,2598.095121 5451.010227,2629.738869 5447.602519,2640.679615 5457.481381,2639.144876 5543.104381,2626.127941 5552.922039,2628.978746 5560.176887,2621.957495 5549.850747,2615.809755 5537.100706,2617.802957 5530.558063,2612.782449 5508.089894,2604.792656 5498.803512,2599.191080 5495.609880,2594.793286 5481.214724,2596.209637 5474.155995,2592.854515 5470.936989,2582.917900 5463.834975,2578.986168"/>
    <poly id="149000612" type="building.university" color="255,230,230" fill="1" layer="-1.00" shape="5596.227548,2975.426109 5584.639184,2975.829425 5585.367977,2996.464793 5578.279370,2996.709319 5578.514143,3003.436277 5586.702031,3003.151696 5587.425045,3023.465752 5597.903899,3023.102343 5596.227548,2975.426109"/>
    <poly id="149000613" type="natural.water" color="181,209,209" fill="1" layer="-4.00" shape="5264.278094,2392.721372 5272.920533,2405.447666 5336.436448,2436.475187 5339.305001,2424.441391 5335.513801,2419.459209 5344.019981,2405.920144 5347.126633,2391.541362 5350.830145,2387.361694 5350.400804,2379.136614 5354.893984,2376.496589 5355.619260,2360.589165 5346.961320,2348.970399 5341.619302,2337.397936 5337.113250,2348.312247 5327.738018,2345.412074 5318.298877,2350.763320 5310.980234,2361.616186 5276.575479,2379.755922 5264.278094,2392.721372"/>
    <poly id="149000614" type="building.university" color="255,230,230" fill="1" layer="-1.00" shape="5181.325123,3328.759811 5198.944706,3328.861953 5199.123330,3296.962888 5181.503783,3296.860743 5181.325123,3328.759811"/>
    <poly id="149000615" type="building.university" color="255,230,230" fill="1" layer="-1.00" shape="5205.358578,3329.150934 5223.152692,3329.255485 5223.333585,3297.190302 5205.539508,3297.085748 5205.358578,3329.150934"/>
    <poly id="149000617" type="building.university" color="255,230,230" fill="1" layer="-1.00" shape="5230.368754,3329.455967 5248.091155,3329.548411 5248.270912,3297.560755 5230.548704,3297.457234 5230.368754,3329.455967"/>
    <poly id="149000618" type="natural.water" color="181,209,209" fill="1" layer="-4.00" shape="5353.050023,2544.574355 5355.625356,2557.215863 5353.771152,2575.289676 5359.549198,2635.063930 5367.706462,2642.843061 5377.600492,2640.223047 5388.326731,2625.064486 5407.494495,2629.685308 5419.623874,2628.758011 5425.501108,2602.000661 5415.747174,2590.909426 5398.850378,2578.079080 5391.232202,2571.404105 5384.120002,2571.880809 5375.334650,2565.699068 5372.751413,2553.622378 5366.862649,2541.488456 5356.999096,2537.518110 5353.050023,2544.574355"/>
    <poly id="149021035" type="natural.water" color="181,209,209" fill="1" layer="-4.00" shape="3257.592489,4349.552233 3285.614785,4354.876352 3310.176764,4353.605136 3335.367715,4363.818559 3357.956107,4364.136714 3372.087219,4356.094413 3366.152958,4347.237821 3366.907828,4333.014454 3350.678168,4311.418254 3348.134749,4296.594576 3335.283146,4270.670501 3326.096827,4257.935419 3322.344254,4250.217241 3311.427682,4242.940912 3298.749944,4243.316155 3287.057809,4252.456143 3266.137916,4251.075826 3252.423515,4247.038835 3235.841498,4251.191668 3225.761193,4262.547584 3218.966181,4276.154132 3223.177976,4289.904729 3231.366137,4295.492190 3230.626433,4308.630226 3237.582117,4322.973338 3246.737668,4337.890221 3257.592489,4349.552233"/>
    <poly id="149021044" type="natural.water" color="181,209,209" fill="1" layer="-4.00" shape="3081.034236,4329.528359 3130.481929,4338.987573 3156.588780,4345.414789 3174.700498,4350.045545 3197.840713,4349.828944 3209.289696,4336.819695 3214.411044,4325.382818 3202.341835,4321.922826 3208.061210,4306.672796 3201.059200,4295.618899 3191.803345,4287.823114 3189.760511,4276.839112 3188.269658,4265.309037 3166.875203,4258.981527 3148.155135,4258.174836 3130.580054,4254.094378 3115.944624,4237.449657 3107.217556,4230.757897 3090.751390,4226.693027 3020.056604,4200.495552 3004.774094,4190.421356 2982.763639,4188.460322 2925.198052,4168.484625 2894.378249,4166.399122 2851.504749,4159.767931 2815.687050,4160.358817 2794.238581,4157.873739 2769.399095,4161.355592 2740.263160,4157.111370 2717.785875,4149.671268 2690.027271,4125.718105 2678.213547,4104.194543 2664.759875,4080.997306 2656.644264,4071.024003 2645.720435,4064.289827 2629.860528,4055.857543 2620.674910,4043.121974 2618.717693,4026.113118 2618.973016,4008.049981 2620.997678,3981.781569 2615.195500,3963.621729 2606.654630,3943.783759 2593.835600,3915.666093 2571.000877,3855.094892 2562.269179,3849.488264 2553.911105,3855.949881 2553.802736,3863.613705 2548.657810,3876.689476 2535.771376,3891.837963 2520.419776,3886.691552 2503.954091,3882.626001 2507.020000,3899.650568 2498.561312,3913.222239 2483.070280,3917.932445 2468.288603,3911.697410 2455.556846,3915.903842 2449.398459,3922.939304 2460.628691,3947.201962 2468.434241,3979.081524 2479.241863,3994.022335 2495.953345,4002.500066 2504.792602,4017.933639 2506.752283,4035.485334 2518.318828,4057.038795 2523.307751,4072.428979 2537.220345,4101.647718 2544.739608,4153.794260 2552.963004,4196.092126 2561.253694,4232.907768 2553.787606,4254.712717 2551.801673,4278.234553 2537.769822,4296.656771 2519.090543,4331.451683 2497.793639,4357.447577 2472.011936,4388.309333 2440.850794,4410.321899 2420.322482,4420.444007 2408.299846,4413.694133 2391.232611,4412.909905 2379.062703,4416.570405 2372.386126,4442.795153 2358.592969,4461.741238 2340.824072,4471.348437 2334.087629,4480.026183 2315.797864,4487.975496 2310.170457,4496.657852 2319.946879,4506.112059 2350.612427,4519.151747 2379.963674,4530.001661 2417.050340,4534.879604 2453.184416,4533.773424 2499.550974,4527.306527 2537.045876,4525.100605 2612.202598,4525.586918 2650.858055,4519.010591 2719.228441,4497.545400 2766.666618,4471.896265 2851.824170,4410.646105 2887.578505,4396.396151 2928.580064,4379.993680 2973.848727,4351.566232 3001.658971,4333.338047 3038.144770,4323.994151 3081.034236,4329.528359"/>
    <poly id="149082070" type="highway.service" color="26,26,26" fill="0" layer="10.00" shape="2508.791262,2528.173564 2564.592672,2599.059160 2649.587027,2707.022598 2655.084473,2714.012455 2660.592191,2721.002456"/>
    <poly id="149082074" type="highway.service" color="26,26,26" fill="0" layer="10.00" shape="2508.791262,2528.173564 2481.548113,2579.052950 2324.189471,2884.027226 2318.526961,2895.223558"/>
    <poly id="149082083" type="highway.service" color="26,26,26" fill="0" layer="10.00" shape="2430.650086,2858.905083 2522.995014,2678.923746 2564.592672,2599.059160"/>
    <poly id="151438531" type="highway.primary" color="26,26,26" fill="0" layer="10.00" shape="5329.091199,418.141722 5326.719571,439.442797 5315.442550,528.609769 5311.601185,583.807949 5303.378635,649.091379 5298.751995,680.407730 5293.639441,711.229901 5281.798396,776.097200 5269.385769,829.702313 5263.117143,856.553843 5252.408274,893.301481 5239.804514,929.723544 5218.330143,983.755784 5204.168188,1023.667437 5201.634349,1035.262816 5201.983609,1057.277621 5205.861376,1075.863598 5210.626376,1090.474273 5221.229493,1108.301352 5237.288744,1126.559161 5301.890784,1202.885147 5398.219187,1318.910689 5492.300877,1429.764401 5500.328649,1435.005100 5512.937434,1438.648207"/>
    <poly id="151493614" type="highway.residential" color="26,26,26" fill="0" layer="10.00" shape="1716.225123,1669.111128 1679.795631,1650.282848"/>
    <poly id="151493615" type="highway.residential" color="26,26,26" fill="0" layer="10.00" shape="1815.233588,1484.310136 1774.816275,1460.728678"/>
    <poly id="151493616" type="highway.residential" color="26,26,26" fill="0" layer="10.00" shape="1655.595687,1788.182302 1614.103911,1767.908366"/>
    <poly id="151493617" type="highway.residential" color="26,26,26" fill="0" layer="10.00" shape="1581.434843,1876.011557 1613.920242,1813.333341 1613.938123,1810.630759 1614.103911,1767.908366 1614.146315,1759.146906 1637.265125,1711.057106 1665.670033,1660.195572 1679.795631,1650.282848 1709.851726,1629.164827 1716.862776,1624.235407 1742.573034,1572.216678 1771.877556,1512.195863 1774.816275,1460.728678 1800.572637,1407.602822 1826.283506,1365.619940 1837.963874,1348.560815 1845.974226,1336.877381 1870.941784,1324.083348 1888.269761,1306.262527 1919.495426,1251.153830 1949.800115,1192.919324 1956.714021,1179.625165 1956.144221,1142.375590 1961.830050,1121.564744 1977.172715,1086.623573 2006.807130,1047.365765"/>
    <poly id="151493618" type="highway.residential" color="26,26,26" fill="0" layer="10.00" shape="1876.915172,1369.075083 1837.963874,1348.560815"/>
    <poly id="151493619" type="highway.residential" color="26,26,26" fill="0" layer="10.00" shape="1845.037028,1286.473944 1888.269761,1306.262527"/>