<?xml version="1.0" encoding="UTF-8"?>

<!-- generated on Fri Jun  7 12:32:46 2019 by Eclipse SUMO polyconvert Version 1.1.0
<configuration xmlns:xsi="http://www.w3.org/2001/XMLSchema-instance" xsi:noNamespaceSchemaLocation="http://sumo.dlr.de/xsd/polyconvertConfiguration.xsd">

    <input>
        <net-file value="paris.net.xml"/>
        <osm-files value="paris.osm"/>
        <osm.keep-full-type value="true"/>
    </input>

    <output>
        <output-file value="paris.poly.xml"/>
    </output>

    <processing>
        <poi-layer-offset value="5"/>
    </processing>

</configuration>
-->

<additional xmlns:xsi="http://www.w3.org/2001/XMLSchema-instance" xsi:noNamespaceSchemaLocation="http://sumo.dlr.de/xsd/additional_file.xsd">
    <location netOffset="-439069.37,-5394504.63" convBoundary="-3695.35,-59.28,4879.57,3271.56" origBoundary="2.077910,48.700143,2.237991,48.747366" projParameter="+proj=utm +zone=31 +ellps=WGS84 +datum=WGS84 +units=m +no_defs"/>

    <poly id="108124417" type="highway.path" color="26,26,26" fill="0" layer="10.00" shape="4066.296907,1254.271711 4061.880704,1254.071911 4041.102354,1257.473195 4023.617483,1266.432982 3994.006608,1268.690077 3868.198426,1277.661539 3829.759568,1282.110434 3699.023677,1289.735128"/>
    <poly id="108124422" type="highway.path" color="26,26,26" fill="0" layer="10.00" shape="3652.848111,1666.138940 3683.319736,1662.659463 3722.217436,1645.042305 3745.831377,1645.012697 3774.469598,1644.965332 3789.607258,1614.450557 3830.103949,1574.628347 3844.390347,1582.576082 3871.690478,1597.762004 3909.078256,1610.977828 3966.220680,1606.350546 4000.672347,1603.566099"/>
    <poly id="108124424" type="highway.path" color="26,26,26" fill="0" layer="10.00" shape="3651.455777,1636.415178 3640.947848,1662.058266 3635.073628,1684.730261 3619.529267,1700.541834 3607.131394,1711.107413 3581.871025,1714.845292 3553.600064,1709.053461 3536.027864,1697.049030 3528.357920,1685.821534 3530.507210,1668.690461 3539.434863,1660.483678 3554.207296,1646.169459 3569.939286,1628.565949 3613.012069,1575.353157 3628.222419,1554.898081 3648.415635,1510.901932 3657.713107,1481.235761 3663.503572,1481.310037"/>
    <poly id="112136897" type="highway.service" color="26,26,26" fill="0" layer="10.00" shape="1743.050160,487.905858 1743.327546,477.930937 1744.233555,451.518383 1744.207752,446.282524"/>
    <poly id="112136903" type="amenity.parking" color="184,184,179" fill="1" layer="-1.00" shape="2330.058222,474.339797 2337.346729,475.430960 2333.868095,503.070876 2326.741365,501.966911 2330.058222,474.339797"/>
    <poly id="112136913" type="highway.service" color="26,26,26" fill="0" layer="10.00" shape="1759.973703,462.791799 1772.683662,471.406883 1775.623704,475.989458 1775.711827,520.634603"/>
    <poly id="112136918" type="highway.path" color="26,26,26" fill="0" layer="10.00" shape="2454.511211,542.011273 2455.077075,545.473887 2453.559939,548.869276 2417.447632,548.211922"/>
    <poly id="112136922" type="highway.path" color="26,26,26" fill="0" layer="10.00" shape="2417.447632,548.211922 2414.953559,548.237935"/>
    <poly id="112136924" type="highway.service" color="26,26,26" fill="0" layer="10.00" shape="2297.649760,515.533491 2306.327447,454.521480"/>
    <poly id="112136925" type="highway.steps" color="26,26,26" fill="0" layer="10.00" shape="2414.953559,548.237935 2409.296723,548.374759"/>
    <poly id="112136926" type="highway.footway" color="26,26,26" fill="0" layer="10.00" shape="2154.406845,626.046032 2153.544759,614.693451 2150.989998,606.115630 2136.051863,565.239175"/>
    <poly id="112136927" type="highway.track" color="26,26,26" fill="0" layer="10.00" shape="2306.327447,454.521480 2313.517682,394.792373"/>
    <poly id="112136928" type="highway.path" color="26,26,26" fill="0" layer="10.00" shape="2135.806990,560.127904 2135.716823,551.524262"/>
    <poly id="112136929" type="highway.steps" color="26,26,26" fill="0" layer="10.00" shape="2423.118230,563.505396 2429.416975,563.539764"/>
    <poly id="112136930" type="highway.residential" color="26,26,26" fill="0" layer="10.00" shape="2133.718721,523.752608 2133.165092,490.585171"/>
    <poly id="112136933" type="highway.path" color="26,26,26" fill="0" layer="10.00" shape="2409.296723,548.374759 2405.668837,548.334785 2401.917332,542.793173"/>
    <poly id="112136934" type="highway.footway" color="26,26,26" fill="0" layer="10.00" shape="2135.967273,539.615289 2133.718721,523.752608"/>
    <poly id="112136936" type="highway.path" color="26,26,26" fill="0" layer="10.00" shape="2417.447632,548.211922 2417.397146,561.008147 2422.862684,560.873326"/>
    <poly id="112136937" type="highway.steps" color="26,26,26" fill="0" layer="10.00" shape="2136.051863,565.239175 2135.806990,560.127904"/>
    <poly id="112136938" type="highway.service" color="26,26,26" fill="0" layer="10.00" shape="2331.015040,525.790534 2333.868095,503.070876 2337.346729,475.430960 2337.869703,471.256613 2355.548227,473.095309"/>
    <poly id="112136942" type="highway.service" color="26,26,26" fill="0" layer="10.00" shape="1662.579181,486.898842 1666.255532,439.279016"/>
    <poly id="112136944" type="highway.path" color="26,26,26" fill="0" layer="10.00" shape="2429.416975,563.539764 2431.455541,564.285582 2434.169863,565.624673"/>
    <poly id="112136945" type="amenity.parking" color="184,184,179" fill="1" layer="-1.00" shape="1744.233555,451.518383 1756.227011,452.192299 1755.741896,463.403402 1745.504588,477.841267 1743.327546,477.930937 1744.233555,451.518383"/>
    <poly id="112136947" type="highway.steps" color="26,26,26" fill="0" layer="10.00" shape="2135.716823,551.524262 2135.967273,539.615289"/>
    <poly id="112136948" type="highway.path" color="26,26,26" fill="0" layer="10.00" shape="2422.862684,560.873326 2516.490068,560.653634 2517.145551,565.660587"/>
    <poly id="115229320" type="highway.tertiary" color="26,26,26" fill="0" layer="10.00" shape="671.123687,672.665743 667.389133,679.131539 658.815095,693.998269 647.502459,712.829893"/>
    <poly id="115229321" type="highway.track" color="26,26,26" fill="0" layer="10.00" shape="902.708960,1125.483360 908.400468,1121.764929"/>
    <poly id="115229324" type="highway.track" color="26,26,26" fill="0" layer="10.00" shape="720.109223,1154.266035 723.853949,1161.796585 730.747385,1170.682980"/>
    <poly id="115229325" type="highway.track" color="26,26,26" fill="0" layer="10.00" shape="905.726030,1155.789622 896.423257,1154.110446 888.361389,1154.263441 882.452027,1156.183255"/>
    <poly id="115229330" type="highway.unclassified" color="26,26,26" fill="0" layer="10.00" shape="703.464728,619.512254 708.963281,592.983431"/>
    <poly id="115229332" type="highway.track" color="26,26,26" fill="0" layer="10.00" shape="896.749893,1116.575640 902.708960,1125.483360 902.581355,1132.121630 905.726030,1155.789622 906.062119,1158.320723 937.548274,1200.028717 939.488616,1202.598246"/>
    <poly id="118075890" type="highway.unclassified" color="26,26,26" fill="0" layer="10.00" shape="2453.600555,1467.413823 2453.328519,1459.668081 2452.585741,1448.403144 2452.558225,1447.880930 2451.901112,1437.070899 2449.993648,1404.417802 2447.812578,1367.398562 2447.348348,1359.565889 2446.705004,1348.666780 2445.183934,1322.735468 2443.253183,1289.971450 2440.500633,1243.308587 2439.728887,1228.564324"/>
    <poly id="118075891" type="highway.unclassified" color="26,26,26" fill="0" layer="10.00" shape="3735.761241,1979.047909 3731.496705,1975.634018 3725.457972,1972.805196 3719.002914,1969.547064 3697.927527,1959.423308 3684.807102,1953.209421 3664.259720,1943.658484 3641.654429,1932.850188 3616.735190,1925.245095 3591.781509,1920.753227 3571.778080,1916.944556 3553.984866,1913.469086 3540.952628,1910.867657 3524.987258,1907.740434 3511.221235,1904.601853 3493.217553,1897.104370 3482.958078,1888.716064 3475.822431,1881.518641 3465.386425,1863.805000 3456.545609,1820.150156 3445.981453,1805.739616 3430.385091,1784.110164 3408.254731,1756.600168"/>
    <poly id="118192673" type="highway.path" color="26,26,26" fill="0" layer="10.00" shape="3677.741721,1744.626481 3665.498999,1791.998749 3639.176978,1850.198314 3679.270475,1906.618985"/>
    <poly id="118192674" type="highway.path" color="26,26,26" fill="0" layer="10.00" shape="3530.507210,1668.690461 3518.331641,1676.530295 3485.496524,1703.491770 3474.026739,1738.561150 3488.104775,1774.991897 3530.963136,1818.887698 3557.983752,1843.446593 3567.286724,1851.099980 3612.561588,1876.762011 3620.195381,1880.174731 3679.270475,1906.618985 3762.398757,1943.824422 3787.201409,1954.455170 3798.478070,1952.272507 3930.047324,1926.831947 3954.708008,1922.067833 4003.289541,1904.865600 4073.188817,1904.289856"/>
    <poly id="118644064" type="highway.path" color="26,26,26" fill="0" layer="10.00" shape="1538.428136,1122.918328 1546.866829,1115.269375 1556.820549,1109.649938 1570.440043,1101.423682"/>
    <poly id="118644742" type="highway.track" color="26,26,26" fill="0" layer="10.00" shape="1538.428136,1122.918328 1553.318857,1162.504204 1564.392516,1189.023490 1571.365016,1208.293399 1573.358185,1213.797490 1576.530561,1223.669229 1579.216165,1235.513842 1579.979025,1237.384555"/>
    <poly id="118741577" type="highway.path" color="26,26,26" fill="0" layer="10.00" shape="1895.455800,1116.281132 1899.677228,1123.118162 1905.409747,1130.228337 1914.852546,1136.854798 1917.535706,1140.839825 1923.569381,1151.404255 1957.250351,1167.481044"/>
    <poly id="118741685" type="highway.path" color="26,26,26" fill="0" layer="10.00" shape="1738.465598,1113.333148 1734.058597,1107.754422 1727.266474,1099.955227 1721.516270,1087.709333 1720.730308,1078.768394 1723.595231,1069.288650 1726.828270,1058.437624 1736.205829,1049.089260 1738.517530,1044.351231 1739.099667,1040.254010 1740.239797,1032.560089"/>
    <poly id="118741686" type="highway.path" color="26,26,26" fill="0" layer="10.00" shape="1761.825120,1128.706162 1738.465598,1113.333148 1729.521991,1114.294666 1721.681263,1115.188971"/>
    <poly id="118793556" type="highway.residential" color="26,26,26" fill="0" layer="10.00" shape="2851.326268,650.126586 2852.471414,648.447178 2856.746949,633.583938 2861.398973,593.247730 2862.168762,586.580672"/>
    <poly id="118793670" type="highway.unclassified" color="26,26,26" fill="0" layer="10.00" shape="2176.939813,1153.202493 2189.268994,1148.148510 2207.778696,1140.328405 2215.951202,1135.985023 2272.798481,1106.274716 2304.362269,1084.577775"/>
    <poly id="118794037" type="highway.tertiary" color="26,26,26" fill="0" layer="10.00" shape="2862.168762,586.580672 2868.765343,589.803032"/>
    <poly id="118794039" type="highway.residential" color="26,26,26" fill="0" layer="10.00" shape="2798.417143,404.510568 2797.940163,415.287894 2797.613185,419.237821 2800.230580,468.036617 2797.043667,475.762611 2794.831730,478.876061 2791.148550,480.604014"/>
    <poly id="118794041" type="highway.tertiary" color="26,26,26" fill="0" layer="10.00" shape="2862.168762,586.580672 2767.408329,573.265825 2750.138127,571.021392 2708.265667,571.155631 2696.836516,571.641117 2645.731805,576.918789 2632.715542,576.198023 2605.039898,569.582014 2576.271487,564.022507 2566.551175,563.267611 2556.069073,562.843052 2517.145551,565.660587"/>
    <poly id="118840359" type="highway.residential" color="26,26,26" fill="0" layer="10.00" shape="1071.851632,813.108908 1072.212603,810.392488 1075.009720,789.129017 1078.467243,781.488043 1084.042468,776.481461 1090.695477,772.497276 1099.044120,770.207045 1130.232169,776.989425"/>
    <poly id="118840362" type="highway.cycleway" color="26,26,26" fill="0" layer="10.00" shape="1128.435497,941.808181 1131.627512,945.843004 1109.989373,1016.922889 1097.940124,1055.060714 1090.477038,1080.320525 1084.696902,1098.503042 1077.807534,1114.774146 1069.301584,1129.161490 1059.853468,1141.435540 1046.959178,1156.181041 1027.945666,1171.792350 1008.209627,1181.741729 984.433127,1190.867227 968.516275,1196.751545 938.344704,1207.768813 902.050398,1221.375349 870.083345,1233.023646 828.645641,1248.586765 808.608777,1251.691950"/>
    <poly id="119352341" type="highway.path" color="26,26,26" fill="0" layer="10.00" shape="3451.508717,915.844558 3452.297406,916.703603 3453.700162,918.612470 3455.803438,921.392402 3465.211061,931.201264"/>
    <poly id="119352342" type="highway.path" color="26,26,26" fill="0" layer="10.00" shape="3456.872821,899.380910 3457.291536,898.598430 3461.976830,898.461492 3466.568308,898.503391 3470.711712,898.616586 3474.174816,899.114729 3476.497293,899.591206 3477.983044,900.265243 3479.029898,901.188349 3480.319978,902.153432 3481.621057,903.474147 3482.471784,904.643836 3483.763912,905.809004 3484.511190,906.935285 3485.853788,907.999885 3488.013246,909.800958"/>
    <poly id="119352343" type="highway.path" color="26,26,26" fill="0" layer="10.00" shape="3442.956481,909.817849 3442.369942,932.991682 3442.738374,935.200188 3443.445779,937.460806 3444.901510,939.513649 3446.398759,941.310376 3452.125843,946.632316"/>
    <poly id="119352416" type="highway.path" color="26,26,26" fill="0" layer="10.00" shape="3484.843119,948.687322 3483.667811,949.588718 3482.545480,950.634093 3482.953324,951.663796 3483.403828,952.548542 3484.550747,953.904187 3485.601689,955.227464 3486.849665,956.393086 3488.451638,959.078111 3489.057198,960.016855 3493.505924,966.241287"/>
    <poly id="119352417" type="highway.path" color="26,26,26" fill="1" layer="10.00" shape="3442.705053,908.975534 3442.454489,907.499541 3442.448175,906.165566 3442.661309,904.707055 3443.218155,903.044916 3443.846339,901.882311 3444.593938,900.885236 3445.394743,900.054372 3445.963665,899.570511 3447.301280,898.711912 3448.436554,898.211131 3449.558936,897.888354 3451.101903,897.683554 3453.568896,897.902850 3455.037773,898.365831 3456.013752,898.833862 3456.872821,899.380910 3457.666705,900.028679 3458.693315,901.129860 3459.567712,902.454941 3460.117390,903.683296 3460.602271,905.768324 3460.657229,906.823875 3460.518000,908.314979 3460.306638,909.228739 3459.798323,910.601337 3458.814444,912.234498 3457.460683,913.671344 3456.262846,914.528508 3454.571431,915.324028 3452.949596,915.729741 3451.508717,915.844558 3449.910614,915.694179 3448.457252,915.308860 3446.808516,914.525331 3445.852558,913.856991 3444.961330,913.043466 3444.477565,912.503691 3444.007602,911.874838 3443.468695,910.979884 3442.956481,909.817849 3442.705053,908.975534"/>
    <poly id="119352418" type="highway.path" color="26,26,26" fill="0" layer="10.00" shape="3471.203918,961.033478 3470.477823,961.974744 3469.596215,962.817549 3469.258540,963.610315 3470.651144,964.529877 3471.500840,965.599522 3472.150997,966.582275 3474.768746,972.903267"/>
    <poly id="119353326" type="highway.path" color="26,26,26" fill="0" layer="10.00" shape="3380.273022,1019.006982 3378.726677,1005.971488 3378.027807,1004.544565 3376.772291,1002.645323 3375.709242,1000.143788 3375.399811,998.668402 3375.231580,996.613483 3375.205233,994.045726 3375.223140,991.488632 3375.483928,987.506070 3375.460205,985.193977 3375.549510,982.424928 3375.209854,979.437939 3374.737950,977.186030 3373.766539,974.294460 3373.012632,972.523476 3369.519336,969.079700 3376.280951,971.967442 3384.646181,973.393531 3390.160653,973.047919 3396.569772,973.849305 3403.841273,972.651912 3408.231110,970.972695 3410.434912,967.770635 3415.387513,965.007304 3418.652899,961.294097 3419.737533,958.726067 3420.896316,954.778770 3421.963733,951.966343 3422.589753,949.158441 3422.606770,946.512421 3422.154167,943.270898 3419.763517,940.449456 3415.243567,935.181873 3410.594713,931.694335 3405.344705,930.569769 3399.892692,931.270468 3395.913604,932.111703 3390.860676,932.986189 3373.487500,940.646164 3363.589306,941.837201 3358.736791,943.599020 3353.610144,945.174668 3337.446931,939.537520 3326.187604,934.995108 3294.335905,931.987186 3286.837044,939.701622 3287.913870,948.550807 3289.870651,958.547120 3292.671866,962.653861 3295.662843,965.180040 3298.051880,967.123204 3300.354055,968.489176 3302.730985,969.254064 3306.876740,969.600570 3307.181135,972.732438 3311.452178,973.099893 3314.814886,973.854660 3320.331573,973.008693 3327.631243,973.122717 3330.271509,972.306297 3336.368623,970.665078 3338.601987,968.196407"/>
    <poly id="119353328" type="highway.path" color="26,26,26" fill="0" layer="10.00" shape="3390.860676,932.986189 3391.521308,910.600894 3392.423962,908.223714 3395.949749,906.942447 3442.454489,907.499541"/>
    <poly id="119353692" type="highway.path" color="26,26,26" fill="0" layer="10.00" shape="3337.446931,939.537520 3338.601987,968.196407"/>
    <poly id="119372732" type="highway.path" color="26,26,26" fill="0" layer="10.00" shape="1419.234472,1307.446668 1424.326916,1295.097151"/>
    <poly id="119372733" type="highway.service" color="26,26,26" fill="0" layer="10.00" shape="2252.145748,1849.420958 2269.342927,1845.739167 2283.546658,1842.811343 2293.498220,1840.561687"/>
    <poly id="119372734" type="highway.path" color="26,26,26" fill="0" layer="10.00" shape="1413.414576,1276.891990 1414.727998,1282.803455 1415.145048,1284.666699 1417.668935,1290.254043 1424.326916,1295.097151 1433.350554,1298.936868 1435.280466,1299.160972 1437.018691,1298.653383 1439.320795,1297.205979 1442.767846,1294.112222 1446.130823,1288.640305"/>
    <poly id="119372735" type="highway.path" color="26,26,26" fill="0" layer="10.00" shape="1414.727998,1282.803455 1392.766817,1274.443027 1392.900970,1269.060937 1394.045875,1245.925263 1394.778739,1232.488054 1394.705587,1225.596242 1427.218216,1211.877393 1431.078944,1210.324515 1452.538012,1202.537311 1463.876214,1230.376534 1466.333348,1236.609397 1469.017462,1247.597963 1457.241954,1260.385159 1451.998000,1262.619712 1449.968107,1263.374965"/>
    <poly id="119372736" type="highway.service" color="26,26,26" fill="0" layer="10.00" shape="2362.477808,1639.100262 2364.163065,1649.021304 2365.876988,1661.687959 2364.617486,1664.358087 2362.062657,1665.563174 2341.356052,1669.970588 2291.712641,1678.938396 2282.467200,1680.502525 2277.010892,1681.415601"/>
    <poly id="119372737" type="highway.path" color="26,26,26" fill="0" layer="10.00" shape="1459.576591,1232.167502 1463.876214,1230.376534"/>
    <poly id="119372738" type="highway.path" color="26,26,26" fill="0" layer="10.00" shape="1450.472176,1290.095070 1451.901732,1285.455207"/>
    <poly id="119398510" type="highway.path" color="26,26,26" fill="0" layer="10.00" shape="798.449676,1550.283942 801.309977,1563.871730 803.191114,1572.589607 840.124828,1757.582617 859.533430,1926.054570"/>
    <poly id="119403141" type="highway.service" color="26,26,26" fill="0" layer="10.00" shape="1291.538820,724.756233 1294.523317,720.344379 1301.461482,715.479169 1307.142555,713.484416 1336.936423,708.154039 1349.431620,703.463318 1352.716516,701.004910 1355.971045,700.536782 1358.856706,701.362153 1360.932392,702.129423 1363.122524,703.973835 1365.380795,707.385031"/>
    <poly id="119403142" type="highway.path" color="26,26,26" fill="0" layer="10.00" shape="1372.731224,701.148134 1369.256853,696.849364 1363.126573,695.346946 1352.693179,698.114720 1341.219058,704.728957 1286.765533,715.246298 1275.388593,712.999332 1269.534376,709.782052"/>
    <poly id="119403143" type="highway.path" color="26,26,26" fill="0" layer="10.00" shape="1288.013808,776.599268 1281.389678,776.391772 1276.032751,772.190896 1267.969131,766.695880 1258.431755,760.994209 1249.481871,754.496992 1245.794180,750.900942 1243.515389,749.024168 1240.709668,746.030177 1239.003079,743.302418 1237.411906,741.740725 1236.838728,739.734633"/>
    <poly id="119403145" type="highway.path" color="26,26,26" fill="0" layer="10.00" shape="1269.534376,709.782052 1274.186474,721.038642"/>
    <poly id="119403148" type="highway.path" color="26,26,26" fill="0" layer="10.00" shape="1192.397257,750.724460 1198.715311,749.823403 1200.652400,746.556592 1204.255406,741.504429 1208.938485,735.618107 1211.467550,733.356652 1212.849370,732.530395 1214.714123,732.143681 1217.092183,732.285124 1236.838728,739.734633 1239.871999,740.602840 1245.951763,740.816080 1249.035870,740.238531 1251.596100,739.522036 1263.236288,729.859767 1264.817414,724.251063 1266.689602,719.028360 1269.534376,709.782052 1257.359264,696.137494 1253.873557,694.240202 1246.433694,696.209252 1240.972601,695.366873 1234.096150,690.126081 1203.987907,726.054542 1208.272143,729.699800"/>
    <poly id="119617678" type="highway.residential" color="26,26,26" fill="0" layer="10.00" shape="1511.522988,702.711320 1515.676552,704.457175 1528.057598,705.648991"/>
    <poly id="119617680" type="highway.residential" color="26,26,26" fill="0" layer="10.00" shape="1511.195253,691.219748 1512.379861,699.556115 1511.522988,702.711320 1506.218457,706.224914"/>
    <poly id="119617681" type="highway.residential" color="26,26,26" fill="0" layer="10.00" shape="1176.963308,912.597857 1168.618893,920.101842 1163.534738,931.139684 1159.764482,935.671157"/>
    <poly id="119617682" type="highway.residential" color="26,26,26" fill="0" layer="10.00" shape="1527.308132,702.966597 1528.057598,705.648991 1538.176738,740.605066"/>
    <poly id="119617684" type="highway.service" color="26,26,26" fill="0" layer="10.00" shape="1425.191968,807.248575 1427.343365,805.447023 1428.124271,803.459902 1428.580699,800.709145 1428.363318,798.943836 1427.877271,797.514890 1426.723188,794.147543"/>
    <poly id="119859563" type="highway.path" color="26,26,26" fill="0" layer="10.00" shape="1629.397527,1192.249060 1634.028596,1188.398063 1636.136314,1182.472619 1636.471088,1177.255175 1628.900124,1170.253642 1619.948145,1163.455711 1612.388662,1157.543551 1606.506298,1151.602545 1603.702799,1148.085852 1603.497945,1147.498814 1599.549517,1142.159917 1595.995555,1137.250415 1592.786566,1132.959822 1587.931085,1129.509312 1583.705567,1123.017182 1581.343008,1120.151741 1573.774161,1109.192581 1570.440043,1101.423682 1568.930360,1095.725485 1562.096341,1083.991486 1552.503618,1072.286698 1539.655882,1051.956191 1526.794576,1029.658136 1519.567377,1018.328565 1505.593404,1003.524128 1484.684739,980.711103"/>
    <poly id="119859564" type="highway.service" color="26,26,26" fill="0" layer="10.00" shape="1421.957175,1059.940562 1416.693053,1068.612144 1415.447024,1078.764136 1409.814645,1106.116317 1388.030133,1152.583439 1375.756817,1178.772166 1364.231674,1203.352118 1363.999777,1204.377352 1362.236690,1212.244733 1354.481300,1218.385910"/>
    <poly id="119859565" type="highway.track" color="26,26,26" fill="0" layer="10.00" shape="1421.957175,1059.940562 1423.106692,1058.027348 1430.505229,1046.653917 1439.961147,1031.556692 1458.758083,1005.776989 1473.880416,990.086131 1484.684739,980.711103 1495.000564,971.752603 1522.117034,954.100492"/>
    <poly id="119859599" type="highway.track" color="26,26,26" fill="0" layer="10.00" shape="1423.106692,1058.027348 1425.857575,1059.343331 1433.126805,1063.524061 1460.772910,1078.539095 1489.948211,1089.991712 1510.456968,1098.012169 1528.575183,1108.870633 1538.428136,1122.918328"/>
    <poly id="119891045" type="highway.path" color="26,26,26" fill="0" layer="10.00" shape="1234.980839,1033.223006 1234.328719,1036.931933 1232.643696,1045.209857 1232.526699,1052.881887 1233.305740,1065.246906 1234.322172,1086.091732 1234.729359,1105.686812 1236.779428,1131.712316 1243.783922,1149.036009 1244.709715,1150.304622"/>
    <poly id="119891046" type="highway.steps" color="26,26,26" fill="0" layer="10.00" shape="1304.305381,1138.064558 1292.859678,1146.568518 1246.387443,1153.788651 1244.709715,1150.304622"/>
    <poly id="119891047" type="highway.steps" color="26,26,26" fill="0" layer="10.00" shape="1292.859678,1146.568518 1301.857851,1156.978494 1307.089722,1163.292965"/>
    <poly id="119891710" type="highway.path" color="26,26,26" fill="0" layer="10.00" shape="1304.305381,1138.064558 1318.303280,1114.947891 1332.960442,1088.778178 1356.025454,1049.979142 1369.225569,1042.457226 1382.152299,1041.753010 1402.655214,1049.884310 1423.106692,1058.027348"/>
    <poly id="121860428" type="highway.steps" color="26,26,26" fill="0" layer="10.00" shape="1300.188604,1216.572672 1298.610076,1216.878498 1297.228158,1216.993244 1295.159978,1216.915179 1293.484873,1217.133096 1292.400280,1217.533726"/>
    <poly id="121860429" type="highway.path" color="26,26,26" fill="0" layer="10.00" shape="1388.409445,1106.532485 1390.322080,1105.122548 1393.520162,1104.210353 1399.015972,1102.817973 1400.798984,1102.365484 1402.349238,1099.391889"/>
    <poly id="121860430" type="highway.steps" color="26,26,26" fill="0" layer="10.00" shape="1360.443334,1325.324476 1361.121234,1324.038812 1362.287747,1322.347744"/>
    <poly id="121860431" type="highway.path" color="26,26,26" fill="0" layer="10.00" shape="1429.975247,1257.472626 1433.859467,1251.895118 1435.529205,1232.444758 1427.218216,1211.877393"/>
    <poly id="121860432" type="highway.path" color="26,26,26" fill="0" layer="10.00" shape="1212.834105,1338.555974 1216.195026,1338.442371 1222.476642,1331.416201 1234.582512,1310.331637 1242.078464,1309.562602 1259.126568,1317.352153 1293.562959,1297.130785"/>
    <poly id="121860433" type="highway.path" color="26,26,26" fill="0" layer="10.00" shape="1396.984557,1096.502800 1395.141033,1098.879187 1395.447797,1100.054341"/>
    <poly id="121860434" type="highway.path" color="26,26,26" fill="0" layer="10.00" shape="1452.427504,1271.208657 1449.968107,1263.374965 1439.204616,1267.524617 1431.529152,1265.249212"/>
    <poly id="121860436" type="highway.path" color="26,26,26" fill="0" layer="10.00" shape="1478.677321,1230.942241 1466.333348,1236.609397"/>
    <poly id="121860438" type="highway.service" color="26,26,26" fill="0" layer="10.00" shape="1402.349238,1099.391889 1407.717056,1103.270370 1409.814645,1106.116317"/>
    <poly id="121860440" type="highway.path" color="26,26,26" fill="0" layer="10.00" shape="1384.612061,1150.096148 1383.160825,1131.901783"/>
    <poly id="121860441" type="highway.path" color="26,26,26" fill="0" layer="10.00" shape="1282.057883,1228.071525 1284.002175,1225.493920 1286.921809,1221.927641 1289.952708,1219.138376 1290.733566,1218.540868 1292.400280,1217.533726"/>
    <poly id="121860442" type="highway.path" color="26,26,26" fill="0" layer="10.00" shape="1348.426998,1196.972023 1354.075436,1199.569007 1359.527293,1201.667816 1363.999777,1204.377352"/>
    <poly id="121860443" type="highway.service" color="26,26,26" fill="0" layer="10.00" shape="1328.200925,1304.855833 1329.440943,1314.236590 1407.602499,1361.465697"/>
    <poly id="121860444" type="highway.path" color="26,26,26" fill="0" layer="10.00" shape="1431.078944,1210.324515 1425.917619,1191.224547 1423.702693,1187.023556 1405.776433,1171.371932 1401.980813,1167.276661 1399.475735,1163.467857 1398.060415,1160.436800 1396.157408,1157.900070 1388.030133,1152.583439"/>
    <poly id="121860445" type="highway.service" color="26,26,26" fill="0" layer="10.00" shape="1308.136646,1212.641671 1318.664805,1209.883903 1325.191780,1211.382048 1330.250650,1213.885219 1332.857679,1217.592856 1336.364972,1222.246998 1338.961921,1225.699053 1340.304621,1231.587957 1341.572589,1239.445378"/>
    <poly id="121860446" type="highway.path" color="26,26,26" fill="1" layer="10.00" shape="1383.559805,1128.595776 1384.063580,1128.923940 1384.421879,1129.409288 1384.597213,1129.985515 1384.559447,1130.586238 1384.322586,1131.144606 1383.725144,1131.695685 1383.160825,1131.901783 1382.557483,1131.897071 1382.158940,1131.779015 1381.662403,1131.439657 1381.266377,1130.865773 1381.127708,1130.278040 1381.188015,1129.721546 1381.454419,1129.173981 1381.883962,1128.746972 1382.587344,1128.472695 1383.190687,1128.477407 1383.559805,1128.595776"/>
    <poly id="121860447" type="highway.steps" color="26,26,26" fill="0" layer="10.00" shape="1382.587344,1128.472695 1381.911265,1126.467682 1380.006115,1123.730873"/>
    <poly id="121860448" type="highway.path" color="26,26,26" fill="0" layer="10.00" shape="1300.188604,1216.572672 1301.593448,1215.846244 1304.905136,1214.554808 1306.571853,1213.547671"/>
    <poly id="121860449" type="highway.path" color="26,26,26" fill="0" layer="10.00" shape="1374.882475,1119.983231 1380.006115,1123.730873"/>
    <poly id="121860450" type="highway.path" color="26,26,26" fill="0" layer="10.00" shape="1323.388628,1227.243048 1325.950769,1226.726669 1329.096097,1225.703826 1332.138589,1224.003935 1334.594555,1223.188527 1336.364972,1222.246998"/>
    <poly id="121860451" type="highway.steps" color="26,26,26" fill="0" layer="10.00" shape="1395.447797,1100.054341 1397.336312,1101.223824 1399.015972,1102.817973"/>
    <poly id="121860452" type="highway.path" color="26,26,26" fill="0" layer="10.00" shape="1346.385040,1141.185982 1342.733147,1144.393144 1338.947524,1150.247593 1339.893031,1155.451457 1342.712247,1161.124568 1348.787286,1165.784792 1359.916920,1173.237309 1369.820370,1176.767424 1375.756817,1178.772166"/>
    <poly id="121860453" type="highway.steps" color="26,26,26" fill="0" layer="10.00" shape="1366.347581,1137.950117 1378.277006,1146.583705"/>
    <poly id="121860454" type="highway.path" color="26,26,26" fill="0" layer="10.00" shape="1378.277006,1146.583705 1384.612061,1150.096148 1388.030133,1152.583439"/>
    <poly id="121860455" type="highway.path" color="26,26,26" fill="0" layer="10.00" shape="1372.493285,1262.896396 1369.963297,1263.668105 1366.798034,1262.812352 1357.628647,1264.655115 1350.802181,1262.659847 1344.990695,1264.100099 1338.374415,1263.192087 1331.000748,1265.782894 1311.144084,1273.397900"/>
    <poly id="121860456" type="highway.path" color="26,26,26" fill="0" layer="10.00" shape="1296.818875,1263.611516 1294.544954,1269.783439 1296.984418,1277.105894 1293.296576,1283.148328 1292.188581,1290.341744 1293.562959,1297.130785 1295.228957,1307.129563"/>
    <poly id="121860457" type="highway.path" color="26,26,26" fill="0" layer="10.00" shape="1363.720246,1136.488329 1366.347581,1137.950117"/>